data_image0
_cell_length_a       7.6824
_cell_length_b       7.8094
_cell_length_c       9.9541
_cell_angle_alpha    79.712
_cell_angle_beta     86.34
_cell_angle_gamma    71.114

_symmetry_space_group_name_H-M    "P 1"
_symmetry_int_tables_number       1

loop_
  _symmetry_equiv_pos_as_xyz
  'x, y, z'

loop_
  _atom_site_label
  _atom_site_occupancy
  _atom_site_fract_x
  _atom_site_fract_y
  _atom_site_fract_z
  _atom_site_thermal_displace_type
  _atom_site_B_iso_or_equiv
  _atom_site_type_symbol
  Cu1      1.0000 0.09430  0.54432  0.08974  Biso   1.000  Cu
  S1       1.0000 0.18670  0.24530  0.16270  Biso   1.000  S 
  C1       1.0000 0.01200  0.16040  0.14270  Biso   1.000  C 
  N1       1.0000 0.87880  0.25060  0.04990  Biso   1.000  N 
  C2       1.0000 0.74930  0.17130  0.03410  Biso   1.000  C 
  S2       1.0000 0.57990  0.28840  0.92050  Biso   1.000  S 
  Cu2      1.0000 0.36561  0.15710  0.95595  Biso   1.000  Cu
  N2       1.0000 0.23960  0.99860  0.89710  Biso   1.000  N 
  C3       1.0000 0.25070  0.82870  0.96590  Biso   1.000  C 
  S3       1.0000 0.42010  0.71160  0.07950  Biso   1.000  S 
  Cu3      1.0000 0.63439  0.84290  0.04405  Biso   1.000  Cu
  N3       1.0000 0.76040  0.00140  0.10290  Biso   1.000  N 
  C4       1.0000 0.89640  0.91500  0.19240  Biso   1.000  C 
  N4       1.0000 0.01900  0.99680  0.21850  Biso   1.000  N 
  S4       1.0000 0.92030  0.69330  0.26810  Biso   1.000  S 
  S5       1.0000 0.81330  0.75470  0.83730  Biso   1.000  S 
  C5       1.0000 0.98800  0.83960  0.85730  Biso   1.000  C 
  N5       1.0000 0.98100  0.00320  0.78150  Biso   1.000  N 
  C6       1.0000 0.10360  0.08500  0.80760  Biso   1.000  C 
  S6       1.0000 0.07970  0.30670  0.73190  Biso   1.000  S 
  Cu4      1.0000 0.90570  0.45568  0.91026  Biso   1.000  Cu
  N6       1.0000 0.12120  0.74940  0.95010  Biso   1.000  N 
