data_image0
_cell_length_a       19.529
_cell_length_b       10.884
_cell_length_c       19.479
_cell_angle_alpha    90
_cell_angle_beta     108.276
_cell_angle_gamma    90

_symmetry_space_group_name_H-M    "P 1"
_symmetry_int_tables_number       1

loop_
  _symmetry_equiv_pos_as_xyz
  'x, y, z'

loop_
  _atom_site_label
  _atom_site_occupancy
  _atom_site_fract_x
  _atom_site_fract_y
  _atom_site_fract_z
  _atom_site_thermal_displace_type
  _atom_site_B_iso_or_equiv
  _atom_site_type_symbol
  Cu1      1.0000 0.00000  0.00000  0.00000  Biso   1.000  Cu
  Cu2      1.0000 0.00000  0.00000  0.50000  Biso   1.000  Cu
  Cu3      1.0000 0.50000  0.50000  0.00000  Biso   1.000  Cu
  Cu4      1.0000 0.50000  0.50000  0.50000  Biso   1.000  Cu
  Cu5      1.0000 0.25000  0.25000  0.00000  Biso   1.000  Cu
  Cu6      1.0000 0.75000  0.25000  0.50000  Biso   1.000  Cu
  Cu7      1.0000 0.75000  0.75000  0.00000  Biso   1.000  Cu
  Cu8      1.0000 0.25000  0.75000  0.50000  Biso   1.000  Cu
  O1       1.0000 0.97323  0.81580  0.03516  Biso   1.000  O 
  O2       1.0000 0.02677  0.81580  0.46484  Biso   1.000  O 
  O3       1.0000 0.47323  0.31580  0.03516  Biso   1.000  O 
  O4       1.0000 0.52677  0.31580  0.46484  Biso   1.000  O 
  O5       1.0000 0.02677  0.18420  0.96484  Biso   1.000  O 
  O6       1.0000 0.97323  0.18420  0.53516  Biso   1.000  O 
  O7       1.0000 0.52677  0.68420  0.96484  Biso   1.000  O 
  O8       1.0000 0.47323  0.68420  0.53516  Biso   1.000  O 
  O9       1.0000 0.87777  0.71360  0.04087  Biso   1.000  O 
  O10      1.0000 0.12223  0.71360  0.45913  Biso   1.000  O 
  O11      1.0000 0.37777  0.21360  0.04087  Biso   1.000  O 
  O12      1.0000 0.62223  0.21360  0.45913  Biso   1.000  O 
  O13      1.0000 0.12223  0.28640  0.95913  Biso   1.000  O 
  O14      1.0000 0.87777  0.28640  0.54087  Biso   1.000  O 
  O15      1.0000 0.62223  0.78640  0.95913  Biso   1.000  O 
  O16      1.0000 0.37777  0.78640  0.54087  Biso   1.000  O 
  N1       1.0000 0.88829  0.03110  0.00348  Biso   1.000  N 
  N2       1.0000 0.11171  0.03110  0.49652  Biso   1.000  N 
  N3       1.0000 0.38829  0.53110  0.00348  Biso   1.000  N 
  N4       1.0000 0.61171  0.53110  0.49652  Biso   1.000  N 
  N5       1.0000 0.11171  0.96890  0.99652  Biso   1.000  N 
  N6       1.0000 0.88829  0.96890  0.50348  Biso   1.000  N 
  N7       1.0000 0.61171  0.46890  0.99652  Biso   1.000  N 
  N8       1.0000 0.38829  0.46890  0.50348  Biso   1.000  N 
  N9       1.0000 0.83211  0.10420  0.98738  Biso   1.000  N 
  N10      1.0000 0.16789  0.10420  0.51262  Biso   1.000  N 
  N11      1.0000 0.33211  0.60420  0.98738  Biso   1.000  N 
  N12      1.0000 0.66789  0.60420  0.51262  Biso   1.000  N 
  N13      1.0000 0.16789  0.89580  0.01262  Biso   1.000  N 
  N14      1.0000 0.83211  0.89580  0.48738  Biso   1.000  N 
  N15      1.0000 0.66789  0.39580  0.01262  Biso   1.000  N 
  N16      1.0000 0.33211  0.39580  0.48738  Biso   1.000  N 
  N17      1.0000 0.77254  0.03750  0.98585  Biso   1.000  N 
  N18      1.0000 0.22746  0.03750  0.51415  Biso   1.000  N 
  N19      1.0000 0.27254  0.53750  0.98585  Biso   1.000  N 
  N20      1.0000 0.72746  0.53750  0.51415  Biso   1.000  N 
  N21      1.0000 0.22746  0.96250  0.01415  Biso   1.000  N 
  N22      1.0000 0.77254  0.96250  0.48585  Biso   1.000  N 
  N23      1.0000 0.72746  0.46250  0.01415  Biso   1.000  N 
  N24      1.0000 0.27254  0.46250  0.48585  Biso   1.000  N 
  N25      1.0000 0.79322  0.92340  0.00127  Biso   1.000  N 
  N26      1.0000 0.20678  0.92340  0.49873  Biso   1.000  N 
  N27      1.0000 0.29322  0.42340  0.00127  Biso   1.000  N 
  N28      1.0000 0.70678  0.42340  0.49873  Biso   1.000  N 
  N29      1.0000 0.20678  0.07660  0.99873  Biso   1.000  N 
  N30      1.0000 0.79322  0.07660  0.50127  Biso   1.000  N 
  N31      1.0000 0.70678  0.57660  0.99873  Biso   1.000  N 
  N32      1.0000 0.29322  0.57660  0.50127  Biso   1.000  N 
  C1       1.0000 0.90908  0.80696  0.03092  Biso   1.000  C 
  C2       1.0000 0.09092  0.80696  0.46908  Biso   1.000  C 
  C3       1.0000 0.40908  0.30696  0.03092  Biso   1.000  C 
  C4       1.0000 0.59092  0.30696  0.46908  Biso   1.000  C 
  C5       1.0000 0.09092  0.19304  0.96908  Biso   1.000  C 
  C6       1.0000 0.90908  0.19304  0.53092  Biso   1.000  C 
  C7       1.0000 0.59092  0.69304  0.96908  Biso   1.000  C 
  C8       1.0000 0.40908  0.69304  0.53092  Biso   1.000  C 
  C9       1.0000 0.86406  0.91900  0.01150  Biso   1.000  C 
  C10      1.0000 0.13594  0.91900  0.48850  Biso   1.000  C 
  C11      1.0000 0.36406  0.41900  0.01150  Biso   1.000  C 
  C12      1.0000 0.63594  0.41900  0.48850  Biso   1.000  C 
  C13      1.0000 0.13594  0.08100  0.98850  Biso   1.000  C 
  C14      1.0000 0.86406  0.08100  0.51150  Biso   1.000  C 
  C15      1.0000 0.63594  0.58100  0.98850  Biso   1.000  C 
  C16      1.0000 0.36406  0.58100  0.51150  Biso   1.000  C 
  N33      1.0000 0.04125  0.05140  0.10407  Biso   1.000  N 
  N34      1.0000 0.95875  0.05140  0.39593  Biso   1.000  N 
  N35      1.0000 0.54125  0.55140  0.10407  Biso   1.000  N 
  N36      1.0000 0.45875  0.55140  0.39593  Biso   1.000  N 
  N37      1.0000 0.95875  0.94860  0.89593  Biso   1.000  N 
  N38      1.0000 0.04125  0.94860  0.60407  Biso   1.000  N 
  N39      1.0000 0.45875  0.44860  0.89593  Biso   1.000  N 
  N40      1.0000 0.54125  0.44860  0.60407  Biso   1.000  N 
  N41      1.0000 0.24803  0.27086  0.10171  Biso   1.000  N 
  N42      1.0000 0.75197  0.27086  0.39829  Biso   1.000  N 
  N43      1.0000 0.74803  0.77086  0.10171  Biso   1.000  N 
  N44      1.0000 0.25197  0.77086  0.39829  Biso   1.000  N 
  N45      1.0000 0.75197  0.72914  0.89829  Biso   1.000  N 
  N46      1.0000 0.24803  0.72914  0.60171  Biso   1.000  N 
  N47      1.0000 0.25197  0.22914  0.89829  Biso   1.000  N 
  N48      1.0000 0.74803  0.22914  0.60171  Biso   1.000  N 
  C17      1.0000 0.07894  0.97330  0.15510  Biso   1.000  C 
  C18      1.0000 0.92106  0.97330  0.34490  Biso   1.000  C 
  C19      1.0000 0.57894  0.47330  0.15510  Biso   1.000  C 
  C20      1.0000 0.42106  0.47330  0.34490  Biso   1.000  C 
  C21      1.0000 0.92106  0.02670  0.84490  Biso   1.000  C 
  C22      1.0000 0.07894  0.02670  0.65510  Biso   1.000  C 
  C23      1.0000 0.42106  0.52670  0.84490  Biso   1.000  C 
  C24      1.0000 0.57894  0.52670  0.65510  Biso   1.000  C 
  H1       1.0000 0.08580  0.89150  0.14160  Biso   1.000  H 
  H2       1.0000 0.91420  0.89150  0.35840  Biso   1.000  H 
  H3       1.0000 0.58580  0.39150  0.14160  Biso   1.000  H 
  H4       1.0000 0.41420  0.39150  0.35840  Biso   1.000  H 
  H5       1.0000 0.91420  0.10850  0.85840  Biso   1.000  H 
  H6       1.0000 0.08580  0.10850  0.64160  Biso   1.000  H 
  H7       1.0000 0.41420  0.60850  0.85840  Biso   1.000  H 
  H8       1.0000 0.58580  0.60850  0.64160  Biso   1.000  H 
  C25      1.0000 0.10818  0.00770  0.22679  Biso   1.000  C 
  C26      1.0000 0.89182  0.00770  0.27321  Biso   1.000  C 
  C27      1.0000 0.60818  0.50770  0.22679  Biso   1.000  C 
  C28      1.0000 0.39182  0.50770  0.27321  Biso   1.000  C 
  C29      1.0000 0.89182  0.99230  0.77321  Biso   1.000  C 
  C30      1.0000 0.10818  0.99230  0.72679  Biso   1.000  C 
  C31      1.0000 0.39182  0.49230  0.77321  Biso   1.000  C 
  C32      1.0000 0.60818  0.49230  0.72679  Biso   1.000  C 
  H9       1.0000 0.13460  0.94980  0.26150  Biso   1.000  H 
  H10      1.0000 0.86540  0.94980  0.23850  Biso   1.000  H 
  H11      1.0000 0.63460  0.44980  0.26150  Biso   1.000  H 
  H12      1.0000 0.36540  0.44980  0.23850  Biso   1.000  H 
  H13      1.0000 0.86540  0.05020  0.73850  Biso   1.000  H 
  H14      1.0000 0.13460  0.05020  0.76150  Biso   1.000  H 
  H15      1.0000 0.36540  0.55020  0.73850  Biso   1.000  H 
  H16      1.0000 0.63460  0.55020  0.76150  Biso   1.000  H 
  C33      1.0000 0.09887  0.12660  0.24789  Biso   1.000  C 
  C34      1.0000 0.90113  0.12660  0.25211  Biso   1.000  C 
  C35      1.0000 0.59887  0.62660  0.24789  Biso   1.000  C 
  C36      1.0000 0.40113  0.62660  0.25211  Biso   1.000  C 
  C37      1.0000 0.90113  0.87340  0.75211  Biso   1.000  C 
  C38      1.0000 0.09887  0.87340  0.74789  Biso   1.000  C 
  C39      1.0000 0.40113  0.37340  0.75211  Biso   1.000  C 
  C40      1.0000 0.59887  0.37340  0.74789  Biso   1.000  C 
  C41      1.0000 0.05885  0.20630  0.19487  Biso   1.000  C 
  C42      1.0000 0.94115  0.20630  0.30513  Biso   1.000  C 
  C43      1.0000 0.55885  0.70630  0.19487  Biso   1.000  C 
  C44      1.0000 0.44115  0.70630  0.30513  Biso   1.000  C 
  C45      1.0000 0.94115  0.79370  0.80513  Biso   1.000  C 
  C46      1.0000 0.05885  0.79370  0.69487  Biso   1.000  C 
  C47      1.0000 0.44115  0.29370  0.80513  Biso   1.000  C 
  C48      1.0000 0.55885  0.29370  0.69487  Biso   1.000  C 
  H17      1.0000 0.05040  0.28820  0.20700  Biso   1.000  H 
  H18      1.0000 0.94960  0.28820  0.29300  Biso   1.000  H 
  H19      1.0000 0.55040  0.78820  0.20700  Biso   1.000  H 
  H20      1.0000 0.44960  0.78820  0.29300  Biso   1.000  H 
  H21      1.0000 0.94960  0.71180  0.79300  Biso   1.000  H 
  H22      1.0000 0.05040  0.71180  0.70700  Biso   1.000  H 
  H23      1.0000 0.44960  0.21180  0.79300  Biso   1.000  H 
  H24      1.0000 0.55040  0.21180  0.70700  Biso   1.000  H 
  C49      1.0000 0.03129  0.16560  0.12410  Biso   1.000  C 
  C50      1.0000 0.96871  0.16560  0.37590  Biso   1.000  C 
  C51      1.0000 0.53129  0.66560  0.12410  Biso   1.000  C 
  C52      1.0000 0.46871  0.66560  0.37590  Biso   1.000  C 
  C53      1.0000 0.96871  0.83440  0.87590  Biso   1.000  C 
  C54      1.0000 0.03129  0.83440  0.62410  Biso   1.000  C 
  C55      1.0000 0.46871  0.33440  0.87590  Biso   1.000  C 
  C56      1.0000 0.53129  0.33440  0.62410  Biso   1.000  C 
  H25      1.0000 0.00420  0.22140  0.08830  Biso   1.000  H 
  H26      1.0000 0.99580  0.22140  0.41170  Biso   1.000  H 
  H27      1.0000 0.50420  0.72140  0.08830  Biso   1.000  H 
  H28      1.0000 0.49580  0.72140  0.41170  Biso   1.000  H 
  H29      1.0000 0.99580  0.77860  0.91170  Biso   1.000  H 
  H30      1.0000 0.00420  0.77860  0.58830  Biso   1.000  H 
  H31      1.0000 0.49580  0.27860  0.91170  Biso   1.000  H 
  H32      1.0000 0.50420  0.27860  0.58830  Biso   1.000  H 
  C57      1.0000 0.13084  0.16690  0.32549  Biso   1.000  C 
  C58      1.0000 0.86916  0.16690  0.17451  Biso   1.000  C 
  C59      1.0000 0.63084  0.66690  0.32549  Biso   1.000  C 
  C60      1.0000 0.36916  0.66690  0.17451  Biso   1.000  C 
  C61      1.0000 0.86916  0.83310  0.67451  Biso   1.000  C 
  C62      1.0000 0.13084  0.83310  0.82549  Biso   1.000  C 
  C63      1.0000 0.36916  0.33310  0.67451  Biso   1.000  C 
  C64      1.0000 0.63084  0.33310  0.82549  Biso   1.000  C 
  H33      1.0000 0.12130  0.10220  0.35710  Biso   1.000  H 
  H34      1.0000 0.87870  0.10220  0.14290  Biso   1.000  H 
  H35      1.0000 0.62130  0.60220  0.35710  Biso   1.000  H 
  H36      1.0000 0.37870  0.60220  0.14290  Biso   1.000  H 
  H37      1.0000 0.87870  0.89780  0.64290  Biso   1.000  H 
  H38      1.0000 0.12130  0.89780  0.85710  Biso   1.000  H 
  H39      1.0000 0.37870  0.39780  0.64290  Biso   1.000  H 
  H40      1.0000 0.62130  0.39780  0.85710  Biso   1.000  H 
  H41      1.0000 0.10560  0.24220  0.33280  Biso   1.000  H 
  H42      1.0000 0.89440  0.24220  0.16720  Biso   1.000  H 
  H43      1.0000 0.60560  0.74220  0.33280  Biso   1.000  H 
  H44      1.0000 0.39440  0.74220  0.16720  Biso   1.000  H 
  H45      1.0000 0.89440  0.75780  0.66720  Biso   1.000  H 
  H46      1.0000 0.10560  0.75780  0.83280  Biso   1.000  H 
  H47      1.0000 0.39440  0.25780  0.66720  Biso   1.000  H 
  H48      1.0000 0.60560  0.25780  0.83280  Biso   1.000  H 
  C65      1.0000 0.21154  0.19260  0.34964  Biso   1.000  C 
  C66      1.0000 0.78846  0.19260  0.15036  Biso   1.000  C 
  C67      1.0000 0.71154  0.69260  0.34964  Biso   1.000  C 
  C68      1.0000 0.28846  0.69260  0.15036  Biso   1.000  C 
  C69      1.0000 0.78846  0.80740  0.65036  Biso   1.000  C 
  C70      1.0000 0.21154  0.80740  0.84964  Biso   1.000  C 
  C71      1.0000 0.28846  0.30740  0.65036  Biso   1.000  C 
  C72      1.0000 0.71154  0.30740  0.84964  Biso   1.000  C 
  H49      1.0000 0.22850  0.20080  0.40290  Biso   1.000  H 
  H50      1.0000 0.77150  0.20080  0.09710  Biso   1.000  H 
  H51      1.0000 0.72850  0.70080  0.40290  Biso   1.000  H 
  H52      1.0000 0.27150  0.70080  0.09710  Biso   1.000  H 
  H53      1.0000 0.77150  0.79920  0.59710  Biso   1.000  H 
  H54      1.0000 0.22850  0.79920  0.90290  Biso   1.000  H 
  H55      1.0000 0.27150  0.29920  0.59710  Biso   1.000  H 
  H56      1.0000 0.72850  0.29920  0.90290  Biso   1.000  H 
  H57      1.0000 0.23620  0.12050  0.33720  Biso   1.000  H 
  H58      1.0000 0.76380  0.12050  0.16280  Biso   1.000  H 
  H59      1.0000 0.73620  0.62050  0.33720  Biso   1.000  H 
  H60      1.0000 0.26380  0.62050  0.16280  Biso   1.000  H 
  H61      1.0000 0.76380  0.87950  0.66280  Biso   1.000  H 
  H62      1.0000 0.23620  0.87950  0.83720  Biso   1.000  H 
  H63      1.0000 0.26380  0.37950  0.66280  Biso   1.000  H 
  H64      1.0000 0.73620  0.37950  0.83720  Biso   1.000  H 
  C73      1.0000 0.23484  0.30590  0.31766  Biso   1.000  C 
  C74      1.0000 0.76516  0.30590  0.18234  Biso   1.000  C 
  C75      1.0000 0.73484  0.80590  0.31766  Biso   1.000  C 
  C76      1.0000 0.26516  0.80590  0.18234  Biso   1.000  C 
  C77      1.0000 0.76516  0.69410  0.68234  Biso   1.000  C 
  C78      1.0000 0.23484  0.69410  0.81766  Biso   1.000  C 
  C79      1.0000 0.26516  0.19410  0.68234  Biso   1.000  C 
  C80      1.0000 0.73484  0.19410  0.81766  Biso   1.000  C 
  H65      1.0000 0.28300  0.33100  0.34970  Biso   1.000  H 
  H66      1.0000 0.71700  0.33100  0.15030  Biso   1.000  H 
  H67      1.0000 0.78300  0.83100  0.34970  Biso   1.000  H 
  H68      1.0000 0.21700  0.83100  0.15030  Biso   1.000  H 
  H69      1.0000 0.71700  0.66900  0.65030  Biso   1.000  H 
  H70      1.0000 0.28300  0.66900  0.84970  Biso   1.000  H 
  H71      1.0000 0.21700  0.16900  0.65030  Biso   1.000  H 
  H72      1.0000 0.78300  0.16900  0.84970  Biso   1.000  H 
  H73      1.0000 0.20080  0.37330  0.31780  Biso   1.000  H 
  H74      1.0000 0.79920  0.37330  0.18220  Biso   1.000  H 
  H75      1.0000 0.70080  0.87330  0.31780  Biso   1.000  H 
  H76      1.0000 0.29920  0.87330  0.18220  Biso   1.000  H 
  H77      1.0000 0.79920  0.62670  0.68220  Biso   1.000  H 
  H78      1.0000 0.20080  0.62670  0.81780  Biso   1.000  H 
  H79      1.0000 0.29920  0.12670  0.68220  Biso   1.000  H 
  H80      1.0000 0.70080  0.12670  0.81780  Biso   1.000  H 
  C81      1.0000 0.20553  0.35480  0.11785  Biso   1.000  C 
  C82      1.0000 0.79447  0.35480  0.38215  Biso   1.000  C 
  C83      1.0000 0.70553  0.85480  0.11785  Biso   1.000  C 
  C84      1.0000 0.29447  0.85480  0.38215  Biso   1.000  C 
  C85      1.0000 0.79447  0.64520  0.88215  Biso   1.000  C 
  C86      1.0000 0.20553  0.64520  0.61785  Biso   1.000  C 
  C87      1.0000 0.29447  0.14520  0.88215  Biso   1.000  C 
  C88      1.0000 0.70553  0.14520  0.61785  Biso   1.000  C 
  H81      1.0000 0.17830  0.40800  0.08060  Biso   1.000  H 
  H82      1.0000 0.82170  0.40800  0.41940  Biso   1.000  H 
  H83      1.0000 0.67830  0.90800  0.08060  Biso   1.000  H 
  H84      1.0000 0.32170  0.90800  0.41940  Biso   1.000  H 
  H85      1.0000 0.82170  0.59200  0.91940  Biso   1.000  H 
  H86      1.0000 0.17830  0.59200  0.58060  Biso   1.000  H 
  H87      1.0000 0.32170  0.09200  0.91940  Biso   1.000  H 
  H88      1.0000 0.67830  0.09200  0.58060  Biso   1.000  H 
  C89      1.0000 0.19935  0.36770  0.18619  Biso   1.000  C 
  C90      1.0000 0.80065  0.36770  0.31381  Biso   1.000  C 
  C91      1.0000 0.69935  0.86770  0.18619  Biso   1.000  C 
  C92      1.0000 0.30065  0.86770  0.31381  Biso   1.000  C 
  C93      1.0000 0.80065  0.63230  0.81381  Biso   1.000  C 
  C94      1.0000 0.19935  0.63230  0.68619  Biso   1.000  C 
  C95      1.0000 0.30065  0.13230  0.81381  Biso   1.000  C 
  C96      1.0000 0.69935  0.13230  0.68619  Biso   1.000  C 
  H89      1.0000 0.16800  0.42800  0.19500  Biso   1.000  H 
  H90      1.0000 0.83200  0.42800  0.30500  Biso   1.000  H 
  H91      1.0000 0.66800  0.92800  0.19500  Biso   1.000  H 
  H92      1.0000 0.33200  0.92800  0.30500  Biso   1.000  H 
  H93      1.0000 0.83200  0.57200  0.80500  Biso   1.000  H 
  H94      1.0000 0.16800  0.57200  0.69500  Biso   1.000  H 
  H95      1.0000 0.33200  0.07200  0.80500  Biso   1.000  H 
  H96      1.0000 0.66800  0.07200  0.69500  Biso   1.000  H 
  C97      1.0000 0.23879  0.29280  0.24158  Biso   1.000  C 
  C98      1.0000 0.76121  0.29280  0.25842  Biso   1.000  C 
  C99      1.0000 0.73879  0.79280  0.24158  Biso   1.000  C 
  C100     1.0000 0.26121  0.79280  0.25842  Biso   1.000  C 
  C101     1.0000 0.76121  0.70720  0.75842  Biso   1.000  C 
  C102     1.0000 0.23879  0.70720  0.74158  Biso   1.000  C 
  C103     1.0000 0.26121  0.20720  0.75842  Biso   1.000  C 
  C104     1.0000 0.73879  0.20720  0.74158  Biso   1.000  C 
  C105     1.0000 0.28436  0.20690  0.22553  Biso   1.000  C 
  C106     1.0000 0.71564  0.20690  0.27447  Biso   1.000  C 
  C107     1.0000 0.78436  0.70690  0.22553  Biso   1.000  C 
  C108     1.0000 0.21564  0.70690  0.27447  Biso   1.000  C 
  C109     1.0000 0.71564  0.79310  0.77447  Biso   1.000  C 
  C110     1.0000 0.28436  0.79310  0.72553  Biso   1.000  C 
  C111     1.0000 0.21564  0.29310  0.77447  Biso   1.000  C 
  C112     1.0000 0.78436  0.29310  0.72553  Biso   1.000  C 
  H97      1.0000 0.31310  0.15450  0.26240  Biso   1.000  H 
  H98      1.0000 0.68690  0.15450  0.23760  Biso   1.000  H 
  H99      1.0000 0.81310  0.65450  0.26240  Biso   1.000  H 
  H100     1.0000 0.18690  0.65450  0.23760  Biso   1.000  H 
  H101     1.0000 0.68690  0.84550  0.73760  Biso   1.000  H 
  H102     1.0000 0.31310  0.84550  0.76240  Biso   1.000  H 
  H103     1.0000 0.18690  0.34550  0.73760  Biso   1.000  H 
  H104     1.0000 0.81310  0.34550  0.76240  Biso   1.000  H 
  C113     1.0000 0.28762  0.19790  0.15583  Biso   1.000  C 
  C114     1.0000 0.71238  0.19790  0.34417  Biso   1.000  C 
  C115     1.0000 0.78762  0.69790  0.15583  Biso   1.000  C 
  C116     1.0000 0.21238  0.69790  0.34417  Biso   1.000  C 
  C117     1.0000 0.71238  0.80210  0.84417  Biso   1.000  C 
  C118     1.0000 0.28762  0.80210  0.65583  Biso   1.000  C 
  C119     1.0000 0.21238  0.30210  0.84417  Biso   1.000  C 
  C120     1.0000 0.78762  0.30210  0.65583  Biso   1.000  C 
  H105     1.0000 0.31870  0.13860  0.14560  Biso   1.000  H 
  H106     1.0000 0.68130  0.13860  0.35440  Biso   1.000  H 
  H107     1.0000 0.81870  0.63860  0.14560  Biso   1.000  H 
  H108     1.0000 0.18130  0.63860  0.35440  Biso   1.000  H 
  H109     1.0000 0.68130  0.86140  0.85440  Biso   1.000  H 
  H110     1.0000 0.31870  0.86140  0.64560  Biso   1.000  H 
  H111     1.0000 0.18130  0.36140  0.85440  Biso   1.000  H 
  H112     1.0000 0.81870  0.36140  0.64560  Biso   1.000  H 
