data_image0
_cell_length_a       13.207
_cell_length_b       17.168
_cell_length_c       19.774
_cell_angle_alpha    105.246
_cell_angle_beta     98.497
_cell_angle_gamma    108.882

_symmetry_space_group_name_H-M    "P 1"
_symmetry_int_tables_number       1

loop_
  _symmetry_equiv_pos_as_xyz
  'x, y, z'

loop_
  _atom_site_label
  _atom_site_occupancy
  _atom_site_fract_x
  _atom_site_fract_y
  _atom_site_fract_z
  _atom_site_thermal_displace_type
  _atom_site_B_iso_or_equiv
  _atom_site_type_symbol
  C1       1.0000 0.55390  0.27000  0.25180  Biso   1.000  C 
  Pd1      1.0000 0.42944  0.22629  0.29230  Biso   1.000  Pd
  Cl1      1.0000 0.46896  0.36712  0.36341  Biso   1.000  Cl
  Cl2      1.0000 0.28017  0.17552  0.34533  Biso   1.000  Cl
  Na1      1.0000 0.21862  0.00174  0.27343  Biso   1.000  Na
  Cl3      1.0000 0.38860  0.08559  0.21693  Biso   1.000  Cl
  O1       1.0000 0.06530  0.99310  0.18810  Biso   1.000  O 
  S1       1.0000 0.03430  0.06040  0.17123  Biso   1.000  S 
  C2       1.0000 0.92990  0.01310  0.09020  Biso   1.000  C 
  H1       1.0000 0.91140  0.05780  0.07730  Biso   1.000  H 
  H2       1.0000 0.86560  0.97220  0.09650  Biso   1.000  H 
  H3       1.0000 0.95560  0.98330  0.05240  Biso   1.000  H 
  C3       1.0000 0.13710  0.12880  0.14830  Biso   1.000  C 
  H4       1.0000 0.15690  0.09590  0.10890  Biso   1.000  H 
  H5       1.0000 0.20040  0.15930  0.18920  Biso   1.000  H 
  H6       1.0000 0.11230  0.17020  0.13390  Biso   1.000  H 
  Na2      1.0000 0.96225  0.85523  0.19883  Biso   1.000  Na
  O2       1.0000 0.07370  0.93630  0.32530  Biso   1.000  O 
  S2       1.0000 0.04354  0.99097  0.38655  Biso   1.000  S 
  C4       1.0000 0.92290  0.91910  0.39920  Biso   1.000  C 
  H7       1.0000 0.94170  0.88000  0.42080  Biso   1.000  H 
  H8       1.0000 0.87000  0.88610  0.35320  Biso   1.000  H 
  H9       1.0000 0.89150  0.95220  0.43050  Biso   1.000  H 
  C5       1.0000 0.98210  0.05220  0.34750  Biso   1.000  C 
  H10      1.0000 0.92680  0.01390  0.30360  Biso   1.000  H 
  H11      1.0000 0.94850  0.08000  0.38100  Biso   1.000  H 
  H12      1.0000 0.03800  0.09580  0.33680  Biso   1.000  H 
  Na3      1.0000 0.14634  0.82124  0.31438  Biso   1.000  Na
  O3       1.0000 0.95260  0.74070  0.25090  Biso   1.000  O 
  S3       1.0000 0.88912  0.64477  0.21522  Biso   1.000  S 
  C6       1.0000 0.93790  0.59390  0.27230  Biso   1.000  C 
  H13      1.0000 0.91150  0.53220  0.24710  Biso   1.000  H 
  H14      1.0000 0.91130  0.60390  0.31520  Biso   1.000  H 
  H15      1.0000 0.01730  0.61770  0.28560  Biso   1.000  H 
  C7       1.0000 0.95270  0.61320  0.14370  Biso   1.000  C 
  H16      1.0000 0.92590  0.55070  0.12430  Biso   1.000  H 
  H17      1.0000 0.93460  0.63570  0.10600  Biso   1.000  H 
  H18      1.0000 0.03160  0.63630  0.16270  Biso   1.000  H 
  O4       1.0000 0.31990  0.95390  0.35150  Biso   1.000  O 
  S4       1.0000 0.39983  0.99734  0.42578  Biso   1.000  S 
  C8       1.0000 0.50030  0.09290  0.42260  Biso   1.000  C 
  H19      1.0000 0.54530  0.12820  0.47070  Biso   1.000  H 
  H20      1.0000 0.46400  0.12530  0.40280  Biso   1.000  H 
  H21      1.0000 0.54620  0.07720  0.39250  Biso   1.000  H 
  C9       1.0000 0.33310  0.04820  0.48370  Biso   1.000  C 
  H22      1.0000 0.30390  0.08260  0.46160  Biso   1.000  H 
  H23      1.0000 0.27380  0.00440  0.49160  Biso   1.000  H 
  H24      1.0000 0.38530  0.08510  0.52920  Biso   1.000  H 
  O5       1.0000 0.20660  0.70530  0.26030  Biso   1.000  O 
  S5       1.0000 0.30414  0.68379  0.28590  Biso   1.000  S 
  C10      1.0000 0.39800  0.77870  0.35590  Biso   1.000  C 
  H25      1.0000 0.35950  0.79940  0.38960  Biso   1.000  H 
  H26      1.0000 0.43050  0.82290  0.33570  Biso   1.000  H 
  H27      1.0000 0.45510  0.76540  0.38070  Biso   1.000  H 
  C11      1.0000 0.26310  0.62010  0.34200  Biso   1.000  C 
  H28      1.0000 0.23080  0.64820  0.37630  Biso   1.000  H 
  H29      1.0000 0.20980  0.56330  0.31250  Biso   1.000  H 
  H30      1.0000 0.32660  0.61440  0.36750  Biso   1.000  H 
  O6       1.0000 0.19060  0.80520  0.42820  Biso   1.000  O 
  S6       1.0000 0.12499  0.80524  0.48060  Biso   1.000  S 
  C12      1.0000 0.19440  0.78100  0.55200  Biso   1.000  C 
  C13      1.0000 0.23920  0.84190  0.62100  Biso   1.000  C 
  C14      1.0000 0.28850  0.82270  0.67780  Biso   1.000  C 
  C15      1.0000 0.32800  0.88760  0.75480  Biso   1.000  C 
  H31      1.0000 0.38220  0.87320  0.78320  Biso   1.000  H 
  C16      1.0000 0.23190  0.87950  0.78940  Biso   1.000  C 
  H32      1.0000 0.20060  0.82130  0.79100  Biso   1.000  H 
  H33      1.0000 0.17650  0.89140  0.76140  Biso   1.000  H 
  H34      1.0000 0.25750  0.92040  0.83780  Biso   1.000  H 
  C17      1.0000 0.38320  0.98120  0.75720  Biso   1.000  C 
  H35      1.0000 0.33060  0.99730  0.73100  Biso   1.000  H 
  H36      1.0000 0.44440  0.98620  0.73560  Biso   1.000  H 
  H37      1.0000 0.40940  0.01930  0.80670  Biso   1.000  H 
  C18      1.0000 0.29400  0.73940  0.66190  Biso   1.000  C 
  C19      1.0000 0.24880  0.67630  0.59340  Biso   1.000  C 
  C20      1.0000 0.24430  0.58340  0.57830  Biso   1.000  C 
  C21      1.0000 0.13240  0.52360  0.58040  Biso   1.000  C 
  H38      1.0000 0.13080  0.46540  0.57110  Biso   1.000  H 
  H39      1.0000 0.12000  0.54390  0.62740  Biso   1.000  H 
  H40      1.0000 0.07540  0.52370  0.54410  Biso   1.000  H 
  H41      1.0000 0.30040  0.58400  0.61710  Biso   1.000  H 
  C22      1.0000 0.27180  0.55030  0.50680  Biso   1.000  C 
  H42      1.0000 0.26820  0.49170  0.49890  Biso   1.000  H 
  H43      1.0000 0.21950  0.55100  0.46800  Biso   1.000  H 
  H44      1.0000 0.34510  0.58720  0.50850  Biso   1.000  H 
  C23      1.0000 0.19930  0.69960  0.53890  Biso   1.000  C 
  H45      1.0000 0.16880  0.65920  0.49230  Biso   1.000  H 
  N1       1.0000 0.33820  0.71520  0.72130  Biso   1.000  N 
  C24      1.0000 0.44610  0.73000  0.74820  Biso   1.000  C 
  Pd2      1.0000 0.57056  0.77371  0.70770  Biso   1.000  Pd
  Cl4      1.0000 0.53104  0.63288  0.63659  Biso   1.000  Cl
  Cl5      1.0000 0.71983  0.82448  0.65467  Biso   1.000  Cl
  Na4      1.0000 0.78138  0.99826  0.72657  Biso   1.000  Na
  Cl6      1.0000 0.61140  0.91441  0.78307  Biso   1.000  Cl
  O7       1.0000 0.68010  0.04610  0.64850  Biso   1.000  O 
  S7       1.0000 0.60017  0.00266  0.57422  Biso   1.000  S 
  C25      1.0000 0.66690  0.95180  0.51630  Biso   1.000  C 
  H46      1.0000 0.69610  0.91740  0.53840  Biso   1.000  H 
  H47      1.0000 0.72620  0.99560  0.50840  Biso   1.000  H 
  H48      1.0000 0.61470  0.91490  0.47080  Biso   1.000  H 
  C26      1.0000 0.49970  0.90710  0.57740  Biso   1.000  C 
  H49      1.0000 0.45380  0.92280  0.60750  Biso   1.000  H 
  H50      1.0000 0.53600  0.87470  0.59720  Biso   1.000  H 
  H51      1.0000 0.45470  0.87180  0.52930  Biso   1.000  H 
  Na5      1.0000 0.85366  0.17876  0.68562  Biso   1.000  Na
  O8       1.0000 0.04740  0.25930  0.74910  Biso   1.000  O 
  S8       1.0000 0.11088  0.35523  0.78478  Biso   1.000  S 
  C27      1.0000 0.06210  0.40610  0.72770  Biso   1.000  C 
  H52      1.0000 0.08870  0.39610  0.68480  Biso   1.000  H 
  H53      1.0000 0.08850  0.46780  0.75290  Biso   1.000  H 
  H54      1.0000 0.98270  0.38230  0.71440  Biso   1.000  H 
  C28      1.0000 0.04730  0.38680  0.85630  Biso   1.000  C 
  H55      1.0000 0.06540  0.36430  0.89400  Biso   1.000  H 
  H56      1.0000 0.07410  0.44930  0.87570  Biso   1.000  H 
  H57      1.0000 0.96840  0.36370  0.83730  Biso   1.000  H 
  Na6      1.0000 0.03775  0.14477  0.80117  Biso   1.000  Na
  O9       1.0000 0.93470  0.00690  0.81190  Biso   1.000  O 
  S9       1.0000 0.96570  0.93960  0.82877  Biso   1.000  S 
  C29      1.0000 0.07010  0.98690  0.90980  Biso   1.000  C 
  H58      1.0000 0.08860  0.94220  0.92270  Biso   1.000  H 
  H59      1.0000 0.13440  0.02780  0.90350  Biso   1.000  H 
  H60      1.0000 0.04440  0.01670  0.94760  Biso   1.000  H 
  C30      1.0000 0.86290  0.87120  0.85170  Biso   1.000  C 
  H61      1.0000 0.84310  0.90410  0.89110  Biso   1.000  H 
  H62      1.0000 0.79960  0.84070  0.81080  Biso   1.000  H 
  H63      1.0000 0.88770  0.82980  0.86610  Biso   1.000  H 
  O10      1.0000 0.20550  0.13310  0.78330  Biso   1.000  O 
  S10      1.0000 0.32399  0.18319  0.82359  Biso   1.000  S 
  C31      1.0000 0.39830  0.20240  0.75880  Biso   1.000  C 
  H64      1.0000 0.36450  0.22820  0.72920  Biso   1.000  H 
  H65      1.0000 0.39750  0.14820  0.72870  Biso   1.000  H 
  H66      1.0000 0.47330  0.24140  0.78300  Biso   1.000  H 
  C32      1.0000 0.34160  0.29280  0.86760  Biso   1.000  C 
  H67      1.0000 0.31010  0.31460  0.83330  Biso   1.000  H 
  H68      1.0000 0.30520  0.29520  0.90620  Biso   1.000  H 
  H69      1.0000 0.41910  0.32800  0.88700  Biso   1.000  H 
  O11      1.0000 0.13060  0.21390  0.92580  Biso   1.000  O 
  S11      1.0000 0.13734  0.25835  0.99858  Biso   1.000  S 
  O12      1.0000 0.05900  0.20530  0.02640  Biso   1.000  O 
  C33      1.0000 0.26880  0.27470  0.05190  Biso   1.000  C 
  C34      1.0000 0.32230  0.34940  0.11090  Biso   1.000  C 
  C35      1.0000 0.42070  0.36120  0.15860  Biso   1.000  C 
  C36      1.0000 0.48560  0.44760  0.21850  Biso   1.000  C 
  C37      1.0000 0.41480  0.49140  0.25270  Biso   1.000  C 
  H70      1.0000 0.37020  0.50270  0.21640  Biso   1.000  H 
  H71      1.0000 0.36780  0.45390  0.27340  Biso   1.000  H 
  H72      1.0000 0.46150  0.54550  0.29000  Biso   1.000  H 
  C38      1.0000 0.56430  0.50830  0.18790  Biso   1.000  C 
  H73      1.0000 0.61380  0.48240  0.17030  Biso   1.000  H 
  H74      1.0000 0.52210  0.51720  0.14880  Biso   1.000  H 
  H75      1.0000 0.60620  0.56340  0.22540  Biso   1.000  H 
  H76      1.0000 0.53060  0.43690  0.25640  Biso   1.000  H 
  C39      1.0000 0.45700  0.29220  0.14480  Biso   1.000  C 
  C40      1.0000 0.40750  0.21740  0.08220  Biso   1.000  C 
  C41      1.0000 0.45750  0.14920  0.06150  Biso   1.000  C 
  C42      1.0000 0.37150  0.05690  0.02610  Biso   1.000  C 
  H77      1.0000 0.40800  0.01690  0.01450  Biso   1.000  H 
  H78      1.0000 0.32770  0.04220  0.05890  Biso   1.000  H 
  H79      1.0000 0.32450  0.05330  0.98250  Biso   1.000  H 
  H80      1.0000 0.50380  0.15120  0.10600  Biso   1.000  H 
  C43      1.0000 0.53220  0.17210  0.01180  Biso   1.000  C 
  H81      1.0000 0.59020  0.22840  0.03660  Biso   1.000  H 
  H82      1.0000 0.56400  0.12900  0.99900  Biso   1.000  H 
  H83      1.0000 0.48930  0.17330  0.96870  Biso   1.000  H 
  C44      1.0000 0.31120  0.21080  0.03670  Biso   1.000  C 
  H84      1.0000 0.27510  0.16200  0.99520  Biso   1.000  H 
  N2       1.0000 0.55450  0.29920  0.19450  Biso   1.000  N 
  C45      1.0000 0.66150  0.33190  0.18610  Biso   1.000  C 
  C46      1.0000 0.72800  0.32280  0.23860  Biso   1.000  C 
  N3       1.0000 0.66180  0.28480  0.27870  Biso   1.000  N 
  C47      1.0000 0.70600  0.26060  0.33810  Biso   1.000  C 
  C48      1.0000 0.71150  0.17730  0.32220  Biso   1.000  C 
  C49      1.0000 0.67200  0.11240  0.24520  Biso   1.000  C 
  C50      1.0000 0.61680  0.01880  0.24280  Biso   1.000  C 
  H85      1.0000 0.66940  0.00270  0.26900  Biso   1.000  H 
  H86      1.0000 0.55560  0.01380  0.26440  Biso   1.000  H 
  H87      1.0000 0.59060  0.98070  0.19330  Biso   1.000  H 
  C51      1.0000 0.76810  0.12050  0.21060  Biso   1.000  C 
  H88      1.0000 0.82350  0.10860  0.23860  Biso   1.000  H 
  H89      1.0000 0.74250  0.07960  0.16220  Biso   1.000  H 
  H90      1.0000 0.79940  0.17870  0.20900  Biso   1.000  H 
  H91      1.0000 0.61780  0.12680  0.21680  Biso   1.000  H 
  C52      1.0000 0.76080  0.15810  0.37900  Biso   1.000  C 
  H92      1.0000 0.76390  0.10310  0.37060  Biso   1.000  H 
  C53      1.0000 0.80560  0.21900  0.44800  Biso   1.000  C 
  S12      1.0000 0.87501  0.19476  0.51940  Biso   1.000  S 
  O13      1.0000 0.80940  0.19480  0.57180  Biso   1.000  O 
  O14      1.0000 0.98220  0.26430  0.54720  Biso   1.000  O 
  O15      1.0000 0.87630  0.11000  0.48660  Biso   1.000  O 
  C54      1.0000 0.80070  0.30040  0.46110  Biso   1.000  C 
  H93      1.0000 0.83120  0.34080  0.50770  Biso   1.000  H 
  C55      1.0000 0.75120  0.32370  0.40660  Biso   1.000  C 
  C56      1.0000 0.75570  0.41660  0.42170  Biso   1.000  C 
  C57      1.0000 0.72820  0.44970  0.49320  Biso   1.000  C 
  H94      1.0000 0.65490  0.41280  0.49150  Biso   1.000  H 
  H95      1.0000 0.78050  0.44900  0.53200  Biso   1.000  H 
  H96      1.0000 0.73180  0.50830  0.50110  Biso   1.000  H 
  H97      1.0000 0.69960  0.41600  0.38290  Biso   1.000  H 
  C58      1.0000 0.86760  0.47640  0.41960  Biso   1.000  C 
  H98      1.0000 0.92460  0.47630  0.45590  Biso   1.000  H 
  H99      1.0000 0.88000  0.45610  0.37260  Biso   1.000  H 
  H100     1.0000 0.86920  0.53460  0.42890  Biso   1.000  H 
  H101     1.0000 0.80420  0.33880  0.24680  Biso   1.000  H 
  H102     1.0000 0.68250  0.35550  0.15070  Biso   1.000  H 
  H103     1.0000 0.29330  0.39260  0.11940  Biso   1.000  H 
  O16      1.0000 0.13490  0.34310  0.01000  Biso   1.000  O 
  O17      1.0000 0.84940  0.14850  0.79950  Biso   1.000  O 
  S13      1.0000 0.81040  0.19461  0.86001  Biso   1.000  S 
  C59      1.0000 0.80620  0.13620  0.92190  Biso   1.000  C 
  H104     1.0000 0.76850  0.15510  0.95690  Biso   1.000  H 
  H105     1.0000 0.76750  0.07490  0.89600  Biso   1.000  H 
  H106     1.0000 0.88030  0.14690  0.94620  Biso   1.000  H 
  C60      1.0000 0.66460  0.16010  0.82680  Biso   1.000  C 
  H107     1.0000 0.63330  0.17770  0.86620  Biso   1.000  H 
  H108     1.0000 0.63250  0.09770  0.80520  Biso   1.000  H 
  H109     1.0000 0.64950  0.18620  0.79120  Biso   1.000  H 
  O18      1.0000 0.92630  0.06370  0.67470  Biso   1.000  O 
  S14      1.0000 0.95646  0.00903  0.61345  Biso   1.000  S 
  C61      1.0000 0.01790  0.94780  0.65250  Biso   1.000  C 
  H110     1.0000 0.07320  0.98610  0.69640  Biso   1.000  H 
  H111     1.0000 0.05150  0.92000  0.61900  Biso   1.000  H 
  H112     1.0000 0.96200  0.90420  0.66320  Biso   1.000  H 
  C62      1.0000 0.07710  0.08090  0.60080  Biso   1.000  C 
  H113     1.0000 0.10850  0.04780  0.56950  Biso   1.000  H 
  H114     1.0000 0.05830  0.12000  0.57920  Biso   1.000  H 
  H115     1.0000 0.13000  0.11390  0.64680  Biso   1.000  H 
  O19      1.0000 0.79340  0.29470  0.73970  Biso   1.000  O 
  S15      1.0000 0.69586  0.31621  0.71410  Biso   1.000  S 
  C63      1.0000 0.60200  0.22130  0.64410  Biso   1.000  C 
  H116     1.0000 0.56950  0.17710  0.66430  Biso   1.000  H 
  H117     1.0000 0.64050  0.20060  0.61040  Biso   1.000  H 
  H118     1.0000 0.54490  0.23460  0.61930  Biso   1.000  H 
  C64      1.0000 0.73690  0.37990  0.65800  Biso   1.000  C 
  H119     1.0000 0.67340  0.38560  0.63250  Biso   1.000  H 
  H120     1.0000 0.76920  0.35180  0.62370  Biso   1.000  H 
  H121     1.0000 0.79020  0.43670  0.68750  Biso   1.000  H 
  N4       1.0000 0.44550  0.70080  0.80550  Biso   1.000  N 
  C65      1.0000 0.33850  0.66810  0.81390  Biso   1.000  C 
  C66      1.0000 0.27200  0.67720  0.76140  Biso   1.000  C 
  H122     1.0000 0.19580  0.66120  0.75320  Biso   1.000  H 
  H123     1.0000 0.31750  0.64450  0.84930  Biso   1.000  H 
  C67      1.0000 0.54300  0.70780  0.85520  Biso   1.000  C 
  C68      1.0000 0.57930  0.63880  0.84140  Biso   1.000  C 
  C69      1.0000 0.51440  0.55240  0.78150  Biso   1.000  C 
  H124     1.0000 0.46940  0.56310  0.74360  Biso   1.000  H 
  C70      1.0000 0.43570  0.49170  0.81210  Biso   1.000  C 
  H125     1.0000 0.39380  0.43660  0.77460  Biso   1.000  H 
  H126     1.0000 0.38620  0.51760  0.82970  Biso   1.000  H 
  H127     1.0000 0.47790  0.48280  0.85120  Biso   1.000  H 
  C71      1.0000 0.58520  0.50860  0.74730  Biso   1.000  C 
  H128     1.0000 0.53850  0.45450  0.71000  Biso   1.000  H 
  H129     1.0000 0.63220  0.54610  0.72660  Biso   1.000  H 
  H130     1.0000 0.62980  0.49730  0.78360  Biso   1.000  H 
  C72      1.0000 0.67770  0.65060  0.88910  Biso   1.000  C 
  H131     1.0000 0.70670  0.60740  0.88060  Biso   1.000  H 
  C73      1.0000 0.73120  0.72530  0.94810  Biso   1.000  C 
  S16      1.0000 0.86266  0.74165  0.00142  Biso   1.000  S 
  O20      1.0000 0.86940  0.78610  0.07420  Biso   1.000  O 
  O21      1.0000 0.86510  0.65690  0.99000  Biso   1.000  O 
  O22      1.0000 0.94100  0.79470  0.97360  Biso   1.000  O 
  C74      1.0000 0.68880  0.78920  0.96330  Biso   1.000  C 
  H132     1.0000 0.72490  0.83800  0.00480  Biso   1.000  H 
  C75      1.0000 0.59250  0.78260  0.91780  Biso   1.000  C 
  C76      1.0000 0.54250  0.85080  0.93850  Biso   1.000  C 
  C77      1.0000 0.46780  0.82790  0.98820  Biso   1.000  C 
  H133     1.0000 0.40980  0.77160  0.96340  Biso   1.000  H 
  H134     1.0000 0.51070  0.82670  0.03130  Biso   1.000  H 
  H135     1.0000 0.43600  0.87100  0.00100  Biso   1.000  H 
  H136     1.0000 0.49620  0.84880  0.89400  Biso   1.000  H 
  C78      1.0000 0.62850  0.94310  0.97390  Biso   1.000  C 
  H137     1.0000 0.59200  0.98310  0.98550  Biso   1.000  H 
  H138     1.0000 0.67230  0.95780  0.94110  Biso   1.000  H 
  H139     1.0000 0.67550  0.94670  0.01750  Biso   1.000  H 
  H140     1.0000 0.23610  0.89690  0.62940  Biso   1.000  H 
  O23      1.0000 0.01780  0.73570  0.45280  Biso   1.000  O 
  O24      1.0000 0.12370  0.89000  0.51340  Biso   1.000  O 
  O25      1.0000 0.15060  0.85150  0.20050  Biso   1.000  O 
  S17      1.0000 0.18960  0.80539  0.13999  Biso   1.000  S 
  C79      1.0000 0.19380  0.86380  0.07810  Biso   1.000  C 
  H141     1.0000 0.11970  0.85310  0.05380  Biso   1.000  H 
  H142     1.0000 0.23250  0.92510  0.10400  Biso   1.000  H 
  H143     1.0000 0.23150  0.84490  0.04310  Biso   1.000  H 
  C80      1.0000 0.33540  0.83990  0.17320  Biso   1.000  C 
  H144     1.0000 0.36750  0.90230  0.19480  Biso   1.000  H 
  H145     1.0000 0.35050  0.81380  0.20880  Biso   1.000  H 
  H146     1.0000 0.36670  0.82230  0.13380  Biso   1.000  H 
  O26      1.0000 0.79450  0.86690  0.21670  Biso   1.000  O 
  S18      1.0000 0.67601  0.81681  0.17641  Biso   1.000  S 
  C81      1.0000 0.60170  0.79760  0.24120  Biso   1.000  C 
  H147     1.0000 0.52670  0.75860  0.21700  Biso   1.000  H 
  H148     1.0000 0.60250  0.85180  0.27130  Biso   1.000  H 
  H149     1.0000 0.63550  0.77180  0.27080  Biso   1.000  H 
  C82      1.0000 0.65840  0.70720  0.13240  Biso   1.000  C 
  H150     1.0000 0.69480  0.70480  0.09380  Biso   1.000  H 
  H151     1.0000 0.58090  0.67200  0.11300  Biso   1.000  H 
  H152     1.0000 0.68990  0.68540  0.16670  Biso   1.000  H 
