data_image0
_cell_length_a       10.908
_cell_length_b       18.731
_cell_length_c       13.019
_cell_angle_alpha    90
_cell_angle_beta     91.09
_cell_angle_gamma    90

_symmetry_space_group_name_H-M    "P 1"
_symmetry_int_tables_number       1

loop_
  _symmetry_equiv_pos_as_xyz
  'x, y, z'

loop_
  _atom_site_label
  _atom_site_occupancy
  _atom_site_fract_x
  _atom_site_fract_y
  _atom_site_fract_z
  _atom_site_thermal_displace_type
  _atom_site_B_iso_or_equiv
  _atom_site_type_symbol
  Co1      1.0000 0.72629  0.05854  0.23700  Biso   1.000  Co
  O1       1.0000 0.62550  0.11723  0.14680  Biso   1.000  O 
  C1       1.0000 0.66730  0.17585  0.10710  Biso   1.000  C 
  C2       1.0000 0.56950  0.21881  0.05240  Biso   1.000  C 
  C3       1.0000 0.45190  0.19323  0.03480  Biso   1.000  C 
  H1       1.0000 0.43140  0.14860  0.06050  Biso   1.000  H 
  C4       1.0000 0.36410  0.23140  0.98050  Biso   1.000  C 
  H2       1.0000 0.28570  0.21280  0.97090  Biso   1.000  H 
  C5       1.0000 0.39290  0.29715  0.94050  Biso   1.000  C 
  C6       1.0000 0.50950  0.32413  0.95780  Biso   1.000  C 
  H3       1.0000 0.52940  0.36880  0.93180  Biso   1.000  H 
  C7       1.0000 0.59730  0.28581  0.01340  Biso   1.000  C 
  H4       1.0000 0.67500  0.30510  0.02450  Biso   1.000  H 
  C8       1.0000 0.29780  0.33740  0.87840  Biso   1.000  C 
  O2       1.0000 0.33630  0.39577  0.83680  Biso   1.000  O 
  Co2      1.0000 0.22629  0.44146  0.73700  Biso   1.000  Co
  O3       1.0000 0.12550  0.38277  0.64680  Biso   1.000  O 
  C9       1.0000 0.16730  0.32415  0.60710  Biso   1.000  C 
  C10      1.0000 0.06950  0.28119  0.55240  Biso   1.000  C 
  C11      1.0000 0.95190  0.30677  0.53480  Biso   1.000  C 
  C12      1.0000 0.86410  0.26860  0.48050  Biso   1.000  C 
  H5       1.0000 0.78570  0.28720  0.47090  Biso   1.000  H 
  C13      1.0000 0.89290  0.20285  0.44050  Biso   1.000  C 
  C14      1.0000 0.79780  0.16260  0.37840  Biso   1.000  C 
  O4       1.0000 0.69290  0.18458  0.37260  Biso   1.000  O 
  O5       1.0000 0.83630  0.10423  0.33680  Biso   1.000  O 
  C15      1.0000 0.00950  0.17587  0.45780  Biso   1.000  C 
  H6       1.0000 0.02940  0.13120  0.43180  Biso   1.000  H 
  C16      1.0000 0.09730  0.21419  0.51340  Biso   1.000  C 
  H7       1.0000 0.17500  0.19490  0.52450  Biso   1.000  H 
  H8       1.0000 0.93140  0.35140  0.56050  Biso   1.000  H 
  O6       1.0000 0.27400  0.30463  0.60960  Biso   1.000  O 
  N1       1.0000 0.10120  0.51059  0.79530  Biso   1.000  N 
  C17      1.0000 0.10050  0.58128  0.80810  Biso   1.000  C 
  N2       1.0000 0.00190  0.60303  0.86110  Biso   1.000  N 
  C18      1.0000 0.97170  0.67710  0.89020  Biso   1.000  C 
  C19      1.0000 0.89890  0.71520  0.80780  Biso   1.000  C 
  H9       1.0000 0.94690  0.71610  0.74590  Biso   1.000  H 
  C20      1.0000 0.77830  0.68400  0.78280  Biso   1.000  C 
  C21      1.0000 0.70070  0.72730  0.70450  Biso   1.000  C 
  H10      1.0000 0.74680  0.73330  0.64210  Biso   1.000  H 
  C22      1.0000 0.57960  0.69170  0.67820  Biso   1.000  C 
  H11      1.0000 0.53720  0.68070  0.74110  Biso   1.000  H 
  H12      1.0000 0.52870  0.72440  0.63840  Biso   1.000  H 
  C23      1.0000 0.59790  0.62360  0.61740  Biso   1.000  C 
  H13      1.0000 0.62450  0.63620  0.54900  Biso   1.000  H 
  H14      1.0000 0.66300  0.59610  0.65010  Biso   1.000  H 
  N3       1.0000 0.48800  0.57859  0.60810  Biso   1.000  N 
  C24      1.0000 0.44170  0.53613  0.68380  Biso   1.000  C 
  N4       1.0000 0.34040  0.50339  0.65410  Biso   1.000  N 
  C25      1.0000 0.31840  0.52646  0.55320  Biso   1.000  C 
  C26      1.0000 0.22260  0.51000  0.48640  Biso   1.000  C 
  H15      1.0000 0.15900  0.48020  0.50590  Biso   1.000  H 
  C27      1.0000 0.22540  0.54010  0.38830  Biso   1.000  C 
  H16      1.0000 0.16310  0.52990  0.34080  Biso   1.000  H 
  C28      1.0000 0.32110  0.58540  0.36100  Biso   1.000  C 
  H17      1.0000 0.32050  0.60470  0.29520  Biso   1.000  H 
  C29      1.0000 0.41490  0.60240  0.42660  Biso   1.000  C 
  H18      1.0000 0.47860  0.63210  0.40700  Biso   1.000  H 
  C30      1.0000 0.41080  0.57295  0.52470  Biso   1.000  C 
  C31      1.0000 0.50170  0.52900  0.78710  Biso   1.000  C 
  H19      1.0000 0.46690  0.48910  0.82260  Biso   1.000  H 
  H20      1.0000 0.48890  0.57180  0.82590  Biso   1.000  H 
  H21      1.0000 0.58810  0.52130  0.77930  Biso   1.000  H 
  H22      1.0000 0.68510  0.77430  0.73250  Biso   1.000  H 
  H23      1.0000 0.79040  0.63640  0.75560  Biso   1.000  H 
  H24      1.0000 0.73260  0.67950  0.84560  Biso   1.000  H 
  H25      1.0000 0.88700  0.76430  0.82930  Biso   1.000  H 
  H26      1.0000 0.92500  0.67650  0.95290  Biso   1.000  H 
  H27      1.0000 0.04710  0.70320  0.90400  Biso   1.000  H 
  C32      1.0000 0.93380  0.54331  0.88550  Biso   1.000  C 
  C33      1.0000 0.99550  0.48570  0.84430  Biso   1.000  C 
  C34      1.0000 0.95030  0.41702  0.85390  Biso   1.000  C 
  H28      1.0000 0.98960  0.37810  0.82480  Biso   1.000  H 
  C35      1.0000 0.84480  0.40910  0.90820  Biso   1.000  C 
  H29      1.0000 0.81290  0.36360  0.91690  Biso   1.000  H 
  C36      1.0000 0.78410  0.46650  0.95060  Biso   1.000  C 
  H30      1.0000 0.71260  0.45870  0.98670  Biso   1.000  H 
  C37      1.0000 0.82810  0.53520  0.94020  Biso   1.000  C 
  H31      1.0000 0.78820  0.57410  0.96870  Biso   1.000  H 
  C38      1.0000 0.19210  0.63190  0.76730  Biso   1.000  C 
  H32      1.0000 0.27290  0.61740  0.78910  Biso   1.000  H 
  H33      1.0000 0.17580  0.67900  0.79280  Biso   1.000  H 
  H34      1.0000 0.18690  0.63220  0.69370  Biso   1.000  H 
  O7       1.0000 0.19290  0.31542  0.87260  Biso   1.000  O 
  O8       1.0000 0.77400  0.19537  0.10960  Biso   1.000  O 
  N5       1.0000 0.60120  0.98941  0.29530  Biso   1.000  N 
  C39      1.0000 0.60050  0.91872  0.30810  Biso   1.000  C 
  N6       1.0000 0.50190  0.89697  0.36110  Biso   1.000  N 
  C40      1.0000 0.47170  0.82290  0.39020  Biso   1.000  C 
  C41      1.0000 0.39890  0.78480  0.30780  Biso   1.000  C 
  H35      1.0000 0.38700  0.73570  0.32930  Biso   1.000  H 
  C42      1.0000 0.27830  0.81600  0.28280  Biso   1.000  C 
  C43      1.0000 0.20070  0.77270  0.20450  Biso   1.000  C 
  H36      1.0000 0.18510  0.72570  0.23250  Biso   1.000  H 
  C44      1.0000 0.07960  0.80830  0.17820  Biso   1.000  C 
  H37      1.0000 0.02870  0.77560  0.13840  Biso   1.000  H 
  H38      1.0000 0.03720  0.81930  0.24110  Biso   1.000  H 
  C45      1.0000 0.09790  0.87640  0.11740  Biso   1.000  C 
  H39      1.0000 0.12450  0.86380  0.04900  Biso   1.000  H 
  H40      1.0000 0.16300  0.90390  0.15010  Biso   1.000  H 
  N7       1.0000 0.98800  0.92141  0.10810  Biso   1.000  N 
  C46      1.0000 0.91080  0.92705  0.02470  Biso   1.000  C 
  C47      1.0000 0.91490  0.89760  0.92660  Biso   1.000  C 
  H41      1.0000 0.97860  0.86790  0.90700  Biso   1.000  H 
  C48      1.0000 0.82110  0.91460  0.86100  Biso   1.000  C 
  H42      1.0000 0.82050  0.89530  0.79520  Biso   1.000  H 
  C49      1.0000 0.72540  0.95990  0.88830  Biso   1.000  C 
  H43      1.0000 0.66310  0.97010  0.84080  Biso   1.000  H 
  C50      1.0000 0.72260  0.99000  0.98640  Biso   1.000  C 
  C51      1.0000 0.81840  0.97354  0.05320  Biso   1.000  C 
  N8       1.0000 0.84040  0.99661  0.15410  Biso   1.000  N 
  C52      1.0000 0.94170  0.96387  0.18380  Biso   1.000  C 
  C53      1.0000 0.00170  0.97100  0.28710  Biso   1.000  C 
  H44      1.0000 0.08810  0.97870  0.27930  Biso   1.000  H 
  H45      1.0000 0.96690  0.01090  0.32260  Biso   1.000  H 
  H46      1.0000 0.98890  0.92820  0.32590  Biso   1.000  H 
  H47      1.0000 0.65900  0.01980  0.00590  Biso   1.000  H 
  H48      1.0000 0.24680  0.76670  0.14210  Biso   1.000  H 
  H49      1.0000 0.29040  0.86360  0.25560  Biso   1.000  H 
  H50      1.0000 0.23260  0.82050  0.34560  Biso   1.000  H 
  H51      1.0000 0.44690  0.78390  0.24590  Biso   1.000  H 
  H52      1.0000 0.42500  0.82350  0.45290  Biso   1.000  H 
  H53      1.0000 0.54710  0.79680  0.40400  Biso   1.000  H 
  C54      1.0000 0.43380  0.95669  0.38550  Biso   1.000  C 
  C55      1.0000 0.49550  0.01430  0.34430  Biso   1.000  C 
  C56      1.0000 0.45030  0.08298  0.35390  Biso   1.000  C 
  C57      1.0000 0.34480  0.09090  0.40820  Biso   1.000  C 
  H54      1.0000 0.31290  0.13640  0.41690  Biso   1.000  H 
  C58      1.0000 0.28410  0.03350  0.45060  Biso   1.000  C 
  H55      1.0000 0.21260  0.04130  0.48670  Biso   1.000  H 
  C59      1.0000 0.32810  0.96480  0.44020  Biso   1.000  C 
  H56      1.0000 0.28820  0.92590  0.46870  Biso   1.000  H 
  H57      1.0000 0.48960  0.12190  0.32480  Biso   1.000  H 
  C60      1.0000 0.69210  0.86810  0.26730  Biso   1.000  C 
  H58      1.0000 0.67580  0.82100  0.29280  Biso   1.000  H 
  H59      1.0000 0.68690  0.86780  0.19370  Biso   1.000  H 
  H60      1.0000 0.77290  0.88260  0.28910  Biso   1.000  H 
