data_image0
_cell_length_a       21.98
_cell_length_b       21.98
_cell_length_c       8.96
_cell_angle_alpha    90
_cell_angle_beta     90
_cell_angle_gamma    90

_symmetry_space_group_name_H-M    "P 1"
_symmetry_int_tables_number       1

loop_
  _symmetry_equiv_pos_as_xyz
  'x, y, z'

loop_
  _atom_site_label
  _atom_site_occupancy
  _atom_site_fract_x
  _atom_site_fract_y
  _atom_site_fract_z
  _atom_site_thermal_displace_type
  _atom_site_B_iso_or_equiv
  _atom_site_type_symbol
  Co1      1.0000 0.00000  0.50000  0.92600  Biso   1.000  Co
  O1       1.0000 0.06600  0.46590  0.80930  Biso   1.000  O 
  P1       1.0000 0.07720  0.41940  0.67930  Biso   1.000  P 
  O2       1.0000 0.03900  0.43310  0.53700  Biso   1.000  O 
  Co2      1.0000 0.00000  0.50000  0.42600  Biso   1.000  Co
  O3       1.0000 0.06600  0.53410  0.30930  Biso   1.000  O 
  P2       1.0000 0.07720  0.58060  0.17930  Biso   1.000  P 
  O4       1.0000 0.03900  0.56690  0.03700  Biso   1.000  O 
  C1       1.0000 0.15780  0.57180  0.12970  Biso   1.000  C 
  C2       1.0000 0.20270  0.60170  0.20890  Biso   1.000  C 
  C3       1.0000 0.26610  0.59100  0.18040  Biso   1.000  C 
  H1       1.0000 0.29630  0.61160  0.23700  Biso   1.000  H 
  C4       1.0000 0.28280  0.55010  0.06920  Biso   1.000  C 
  C5       1.0000 0.34880  0.53490  0.04400  Biso   1.000  C 
  C6       1.0000 0.36840  0.47310  0.05000  Biso   1.000  C 
  C7       1.0000 0.32740  0.42270  0.08170  Biso   1.000  C 
  H2       1.0000 0.28690  0.42530  0.11770  Biso   1.000  H 
  C8       1.0000 0.35930  0.37020  0.04910  Biso   1.000  C 
  C9       1.0000 0.41990  0.38980  0.00090  Biso   1.000  C 
  N1       1.0000 0.42560  0.45160  0.01040  Biso   1.000  N 
  Ni1      1.0000 0.50000  0.50000  0.00000  Biso   1.000  Ni
  N2       1.0000 0.57440  0.54840  0.01040  Biso   1.000  N 
  C10      1.0000 0.58010  0.61020  0.00090  Biso   1.000  C 
  C11      1.0000 0.64070  0.62980  0.04910  Biso   1.000  C 
  H3       1.0000 0.65510  0.67040  0.05650  Biso   1.000  H 
  C12      1.0000 0.67260  0.57730  0.08170  Biso   1.000  C 
  H4       1.0000 0.71310  0.57470  0.11770  Biso   1.000  H 
  C13      1.0000 0.63160  0.52690  0.05000  Biso   1.000  C 
  C14      1.0000 0.65120  0.46510  0.04400  Biso   1.000  C 
  C15      1.0000 0.71720  0.44990  0.06920  Biso   1.000  C 
  C16      1.0000 0.73390  0.40900  0.18040  Biso   1.000  C 
  H5       1.0000 0.70370  0.38840  0.23700  Biso   1.000  H 
  C17      1.0000 0.79730  0.39830  0.20890  Biso   1.000  C 
  H6       1.0000 0.80860  0.37000  0.28400  Biso   1.000  H 
  C18      1.0000 0.84220  0.42820  0.12970  Biso   1.000  C 
  P3       1.0000 0.92280  0.41940  0.17930  Biso   1.000  P 
  O5       1.0000 0.96100  0.43310  0.03700  Biso   1.000  O 
  O6       1.0000 0.93400  0.46590  0.30930  Biso   1.000  O 
  O7       1.0000 0.93330  0.35360  0.23000  Biso   1.000  O 
  H7       1.0000 0.92087  0.32530  0.14917  Biso   1.000  H 
  H8       1.0000 0.97709  0.34755  0.25288  Biso   1.000  H 
  C19      1.0000 0.82470  0.46820  0.01290  Biso   1.000  C 
  C20      1.0000 0.76380  0.47910  0.98280  Biso   1.000  C 
  H9       1.0000 0.75290  0.50600  0.90440  Biso   1.000  H 
  H10      1.0000 0.85510  0.48780  0.95470  Biso   1.000  H 
  C21      1.0000 0.61020  0.41990  0.99910  Biso   1.000  C 
  N3       1.0000 0.54840  0.42560  0.98960  Biso   1.000  N 
  C22      1.0000 0.52690  0.36840  0.95000  Biso   1.000  C 
  C23      1.0000 0.46510  0.34880  0.95600  Biso   1.000  C 
  C24      1.0000 0.44990  0.28280  0.93080  Biso   1.000  C 
  C25      1.0000 0.40900  0.26610  0.81960  Biso   1.000  C 
  H11      1.0000 0.38840  0.29630  0.76300  Biso   1.000  H 
  C26      1.0000 0.39830  0.20270  0.79110  Biso   1.000  C 
  H12      1.0000 0.37000  0.19140  0.71600  Biso   1.000  H 
  C27      1.0000 0.42820  0.15780  0.87030  Biso   1.000  C 
  P4       1.0000 0.41940  0.07720  0.82070  Biso   1.000  P 
  O8       1.0000 0.46590  0.06600  0.69070  Biso   1.000  O 
  Co3      1.0000 0.50000  0.00000  0.57400  Biso   1.000  Co
  O9       1.0000 0.56690  0.03900  0.46300  Biso   1.000  O 
  P5       1.0000 0.58060  0.07720  0.32070  Biso   1.000  P 
  O10      1.0000 0.64640  0.06670  0.27000  Biso   1.000  O 
  H13      1.0000 0.67470  0.07913  0.35083  Biso   1.000  H 
  H14      1.0000 0.65245  0.02291  0.24712  Biso   1.000  H 
  O11      1.0000 0.53410  0.06600  0.19070  Biso   1.000  O 
  Co4      1.0000 0.50000  0.00000  0.07400  Biso   1.000  Co
  O12      1.0000 0.43310  0.03900  0.96300  Biso   1.000  O 
  O13      1.0000 0.56690  0.96100  0.96300  Biso   1.000  O 
  P6       1.0000 0.58060  0.92280  0.82070  Biso   1.000  P 
  O14      1.0000 0.53410  0.93400  0.69070  Biso   1.000  O 
  C28      1.0000 0.57180  0.84220  0.87030  Biso   1.000  C 
  C29      1.0000 0.60170  0.79730  0.79110  Biso   1.000  C 
  C30      1.0000 0.59100  0.73390  0.81960  Biso   1.000  C 
  H15      1.0000 0.61160  0.70370  0.76300  Biso   1.000  H 
  C31      1.0000 0.55010  0.71720  0.93080  Biso   1.000  C 
  C32      1.0000 0.52090  0.76380  0.01720  Biso   1.000  C 
  H16      1.0000 0.49400  0.75290  0.09560  Biso   1.000  H 
  C33      1.0000 0.53180  0.82470  0.98710  Biso   1.000  C 
  H17      1.0000 0.51220  0.85510  0.04530  Biso   1.000  H 
  C34      1.0000 0.53490  0.65120  0.95600  Biso   1.000  C 
  C35      1.0000 0.47310  0.63160  0.95000  Biso   1.000  C 
  C36      1.0000 0.42270  0.67260  0.91830  Biso   1.000  C 
  H18      1.0000 0.42530  0.71310  0.88230  Biso   1.000  H 
  C37      1.0000 0.37020  0.64070  0.95090  Biso   1.000  C 
  H19      1.0000 0.32960  0.65510  0.94350  Biso   1.000  H 
  C38      1.0000 0.38980  0.58010  0.99910  Biso   1.000  C 
  N4       1.0000 0.45160  0.57440  0.98960  Biso   1.000  N 
  H20      1.0000 0.63000  0.80860  0.71600  Biso   1.000  H 
  O15      1.0000 0.64640  0.93330  0.77000  Biso   1.000  O 
  H21      1.0000 0.65245  0.97709  0.74712  Biso   1.000  H 
  H22      1.0000 0.67470  0.92087  0.85083  Biso   1.000  H 
  O16      1.0000 0.46590  0.93400  0.19070  Biso   1.000  O 
  P7       1.0000 0.41940  0.92280  0.32070  Biso   1.000  P 
  O17      1.0000 0.35360  0.93330  0.27000  Biso   1.000  O 
  H23      1.0000 0.32530  0.92087  0.35083  Biso   1.000  H 
  H24      1.0000 0.34755  0.97709  0.24712  Biso   1.000  H 
  C39      1.0000 0.42820  0.84220  0.37030  Biso   1.000  C 
  C40      1.0000 0.39830  0.79730  0.29110  Biso   1.000  C 
  H25      1.0000 0.37000  0.80860  0.21600  Biso   1.000  H 
  C41      1.0000 0.40900  0.73390  0.31960  Biso   1.000  C 
  H26      1.0000 0.38840  0.70370  0.26300  Biso   1.000  H 
  C42      1.0000 0.44990  0.71720  0.43080  Biso   1.000  C 
  C43      1.0000 0.47910  0.76380  0.51720  Biso   1.000  C 
  C44      1.0000 0.46820  0.82470  0.48710  Biso   1.000  C 
  H27      1.0000 0.48780  0.85510  0.54530  Biso   1.000  H 
  H28      1.0000 0.50600  0.75290  0.59560  Biso   1.000  H 
  C45      1.0000 0.46510  0.65120  0.45600  Biso   1.000  C 
  C46      1.0000 0.52690  0.63160  0.45000  Biso   1.000  C 
  C47      1.0000 0.57730  0.67260  0.41830  Biso   1.000  C 
  H29      1.0000 0.57470  0.71310  0.38230  Biso   1.000  H 
  C48      1.0000 0.62980  0.64070  0.45090  Biso   1.000  C 
  H30      1.0000 0.67040  0.65510  0.44350  Biso   1.000  H 
  C49      1.0000 0.61020  0.58010  0.49910  Biso   1.000  C 
  C50      1.0000 0.65120  0.53490  0.54400  Biso   1.000  C 
  C51      1.0000 0.71720  0.55010  0.56920  Biso   1.000  C 
  C52      1.0000 0.76380  0.52090  0.48280  Biso   1.000  C 
  H31      1.0000 0.75290  0.49400  0.40440  Biso   1.000  H 
  C53      1.0000 0.82470  0.53180  0.51290  Biso   1.000  C 
  H32      1.0000 0.85510  0.51220  0.45470  Biso   1.000  H 
  C54      1.0000 0.84220  0.57180  0.62970  Biso   1.000  C 
  C55      1.0000 0.79730  0.60170  0.70890  Biso   1.000  C 
  H33      1.0000 0.80860  0.63000  0.78400  Biso   1.000  H 
  C56      1.0000 0.73390  0.59100  0.68040  Biso   1.000  C 
  H34      1.0000 0.70370  0.61160  0.73700  Biso   1.000  H 
  P8       1.0000 0.92280  0.58060  0.67930  Biso   1.000  P 
  O18      1.0000 0.96100  0.56690  0.53700  Biso   1.000  O 
  O19      1.0000 0.93330  0.64640  0.73000  Biso   1.000  O 
  H35      1.0000 0.92087  0.67470  0.64917  Biso   1.000  H 
  H36      1.0000 0.97709  0.65245  0.75288  Biso   1.000  H 
  O20      1.0000 0.93400  0.53410  0.80930  Biso   1.000  O 
  C57      1.0000 0.63160  0.47310  0.55000  Biso   1.000  C 
  C58      1.0000 0.67260  0.42270  0.58170  Biso   1.000  C 
  C59      1.0000 0.64070  0.37020  0.54910  Biso   1.000  C 
  C60      1.0000 0.58010  0.38980  0.50090  Biso   1.000  C 
  C61      1.0000 0.53490  0.34880  0.45600  Biso   1.000  C 
  C62      1.0000 0.55010  0.28280  0.43080  Biso   1.000  C 
  C63      1.0000 0.59100  0.26610  0.31960  Biso   1.000  C 
  H37      1.0000 0.61160  0.29630  0.26300  Biso   1.000  H 
  C64      1.0000 0.60170  0.20270  0.29110  Biso   1.000  C 
  H38      1.0000 0.63000  0.19140  0.21600  Biso   1.000  H 
  C65      1.0000 0.57180  0.15780  0.37030  Biso   1.000  C 
  C66      1.0000 0.53180  0.17530  0.48710  Biso   1.000  C 
  H39      1.0000 0.51220  0.14490  0.54530  Biso   1.000  H 
  C67      1.0000 0.52090  0.23620  0.51720  Biso   1.000  C 
  H40      1.0000 0.49400  0.24710  0.59560  Biso   1.000  H 
  C68      1.0000 0.47310  0.36840  0.45000  Biso   1.000  C 
  C69      1.0000 0.42270  0.32740  0.41830  Biso   1.000  C 
  H41      1.0000 0.42530  0.28690  0.38230  Biso   1.000  H 
  C70      1.0000 0.37020  0.35930  0.45090  Biso   1.000  C 
  H42      1.0000 0.32960  0.34490  0.44350  Biso   1.000  H 
  C71      1.0000 0.38980  0.41990  0.49910  Biso   1.000  C 
  C72      1.0000 0.34880  0.46510  0.54400  Biso   1.000  C 
  C73      1.0000 0.28280  0.44990  0.56920  Biso   1.000  C 
  C74      1.0000 0.23620  0.47910  0.48280  Biso   1.000  C 
  C75      1.0000 0.17530  0.46820  0.51290  Biso   1.000  C 
  H43      1.0000 0.14490  0.48780  0.45470  Biso   1.000  H 
  C76      1.0000 0.15780  0.42820  0.62970  Biso   1.000  C 
  C77      1.0000 0.20270  0.39830  0.70890  Biso   1.000  C 
  C78      1.0000 0.26610  0.40900  0.68040  Biso   1.000  C 
  H44      1.0000 0.29630  0.38840  0.73700  Biso   1.000  H 
  H45      1.0000 0.19140  0.37000  0.78400  Biso   1.000  H 
  H46      1.0000 0.24710  0.50600  0.40440  Biso   1.000  H 
  C79      1.0000 0.36840  0.52690  0.55000  Biso   1.000  C 
  C80      1.0000 0.32740  0.57730  0.58170  Biso   1.000  C 
  C81      1.0000 0.35930  0.62980  0.54910  Biso   1.000  C 
  C82      1.0000 0.41990  0.61020  0.50090  Biso   1.000  C 
  N5       1.0000 0.42560  0.54840  0.51040  Biso   1.000  N 
  Ni2      1.0000 0.50000  0.50000  0.50000  Biso   1.000  Ni
  N6       1.0000 0.45160  0.42560  0.48960  Biso   1.000  N 
  N7       1.0000 0.57440  0.45160  0.51040  Biso   1.000  N 
  N8       1.0000 0.54840  0.57440  0.48960  Biso   1.000  N 
  H47      1.0000 0.34490  0.67040  0.55650  Biso   1.000  H 
  H48      1.0000 0.28690  0.57470  0.61770  Biso   1.000  H 
  H49      1.0000 0.65510  0.32960  0.55650  Biso   1.000  H 
  H50      1.0000 0.71310  0.42530  0.61770  Biso   1.000  H 
  O21      1.0000 0.43310  0.96100  0.46300  Biso   1.000  O 
  O22      1.0000 0.35360  0.06670  0.77000  Biso   1.000  O 
  H51      1.0000 0.34755  0.02291  0.74712  Biso   1.000  H 
  H52      1.0000 0.32530  0.07913  0.85083  Biso   1.000  H 
  C83      1.0000 0.46820  0.17530  0.98710  Biso   1.000  C 
  H53      1.0000 0.48780  0.14490  0.04530  Biso   1.000  H 
  C84      1.0000 0.47910  0.23620  0.01720  Biso   1.000  C 
  H54      1.0000 0.50600  0.24710  0.09560  Biso   1.000  H 
  C85      1.0000 0.57730  0.32740  0.91830  Biso   1.000  C 
  H55      1.0000 0.57470  0.28690  0.88230  Biso   1.000  H 
  C86      1.0000 0.62980  0.35930  0.95090  Biso   1.000  C 
  H56      1.0000 0.67040  0.34490  0.94350  Biso   1.000  H 
  H57      1.0000 0.34490  0.32960  0.05650  Biso   1.000  H 
  C87      1.0000 0.23620  0.52090  0.98280  Biso   1.000  C 
  H58      1.0000 0.24710  0.49400  0.90440  Biso   1.000  H 
  C88      1.0000 0.17530  0.53180  0.01290  Biso   1.000  C 
  H59      1.0000 0.14490  0.51220  0.95470  Biso   1.000  H 
  H60      1.0000 0.19140  0.63000  0.28400  Biso   1.000  H 
  O23      1.0000 0.06670  0.64640  0.23000  Biso   1.000  O 
  H61      1.0000 0.07913  0.67470  0.14917  Biso   1.000  H 
  H62      1.0000 0.02291  0.65245  0.25288  Biso   1.000  H 
  O24      1.0000 0.06670  0.35360  0.73000  Biso   1.000  O 
  H63      1.0000 0.07913  0.32530  0.64917  Biso   1.000  H 
  H64      1.0000 0.02291  0.34755  0.75288  Biso   1.000  H 
