data_image0
_cell_length_a       9.726
_cell_length_b       7.5477
_cell_length_c       57.53
_cell_angle_alpha    90
_cell_angle_beta     94.66
_cell_angle_gamma    90

_symmetry_space_group_name_H-M    "P 1"
_symmetry_int_tables_number       1

loop_
  _symmetry_equiv_pos_as_xyz
  'x, y, z'

loop_
  _atom_site_label
  _atom_site_occupancy
  _atom_site_fract_x
  _atom_site_fract_y
  _atom_site_fract_z
  _atom_site_thermal_displace_type
  _atom_site_B_iso_or_equiv
  _atom_site_type_symbol
  Co1      1.0000 0.78496  0.48297  0.47701  Biso   1.000  Co
  O1       1.0000 0.79584  0.25956  0.45230  Biso   1.000  O 
  C1       1.0000 0.72459  0.34662  0.43727  Biso   1.000  C 
  O2       1.0000 0.70830  0.50940  0.43995  Biso   1.000  O 
  C2       1.0000 0.65672  0.25308  0.41539  Biso   1.000  C 
  H1       1.0000 0.54615  0.26478  0.41514  Biso   1.000  H 
  H2       1.0000 0.68514  0.11500  0.41577  Biso   1.000  H 
  C3       1.0000 0.70651  0.34056  0.39331  Biso   1.000  C 
  H3       1.0000 0.67809  0.47864  0.39292  Biso   1.000  H 
  H4       1.0000 0.81708  0.32885  0.39356  Biso   1.000  H 
  C4       1.0000 0.63864  0.24702  0.37143  Biso   1.000  C 
  H5       1.0000 0.52806  0.25873  0.37118  Biso   1.000  H 
  H6       1.0000 0.66705  0.10894  0.37181  Biso   1.000  H 
  C5       1.0000 0.68843  0.33450  0.34935  Biso   1.000  C 
  H7       1.0000 0.79900  0.32279  0.34960  Biso   1.000  H 
  H8       1.0000 0.66001  0.47258  0.34896  Biso   1.000  H 
  C6       1.0000 0.62055  0.24096  0.32747  Biso   1.000  C 
  H9       1.0000 0.64896  0.10288  0.32786  Biso   1.000  H 
  H10      1.0000 0.50998  0.25267  0.32722  Biso   1.000  H 
  C7       1.0000 0.67035  0.32843  0.30539  Biso   1.000  C 
  H11      1.0000 0.78092  0.31672  0.30564  Biso   1.000  H 
  H12      1.0000 0.64193  0.46652  0.30501  Biso   1.000  H 
  C8       1.0000 0.60247  0.23490  0.28351  Biso   1.000  C 
  H13      1.0000 0.49190  0.24661  0.28326  Biso   1.000  H 
  H14      1.0000 0.63088  0.09682  0.28390  Biso   1.000  H 
  C9       1.0000 0.65226  0.32237  0.26143  Biso   1.000  C 
  H15      1.0000 0.76283  0.31066  0.26168  Biso   1.000  H 
  H16      1.0000 0.62385  0.46046  0.26105  Biso   1.000  H 
  C10      1.0000 0.58438  0.22884  0.23955  Biso   1.000  C 
  H17      1.0000 0.47381  0.24056  0.23931  Biso   1.000  H 
  H18      1.0000 0.61279  0.09076  0.23994  Biso   1.000  H 
  C11      1.0000 0.63418  0.31631  0.21748  Biso   1.000  C 
  H19      1.0000 0.60577  0.45440  0.21709  Biso   1.000  H 
  H20      1.0000 0.74475  0.30460  0.21772  Biso   1.000  H 
  C12      1.0000 0.56630  0.22278  0.19560  Biso   1.000  C 
  H21      1.0000 0.45573  0.23450  0.19535  Biso   1.000  H 
  H22      1.0000 0.59471  0.08470  0.19598  Biso   1.000  H 
  C13      1.0000 0.61610  0.31025  0.17352  Biso   1.000  C 
  H23      1.0000 0.58769  0.44834  0.17313  Biso   1.000  H 
  H24      1.0000 0.72667  0.29853  0.17377  Biso   1.000  H 
  C14      1.0000 0.54822  0.21672  0.15164  Biso   1.000  C 
  H25      1.0000 0.43765  0.22845  0.15139  Biso   1.000  H 
  H26      1.0000 0.57662  0.07864  0.15202  Biso   1.000  H 
  C15      1.0000 0.59802  0.30419  0.12956  Biso   1.000  C 
  H27      1.0000 0.56961  0.44228  0.12917  Biso   1.000  H 
  H28      1.0000 0.70859  0.29247  0.12981  Biso   1.000  H 
  C16      1.0000 0.53013  0.21066  0.10768  Biso   1.000  C 
  H29      1.0000 0.41956  0.22239  0.10743  Biso   1.000  H 
  H30      1.0000 0.55853  0.07258  0.10806  Biso   1.000  H 
  C17      1.0000 0.57993  0.29813  0.08560  Biso   1.000  C 
  H31      1.0000 0.55153  0.43622  0.08521  Biso   1.000  H 
  H32      1.0000 0.69050  0.28640  0.08585  Biso   1.000  H 
  C18      1.0000 0.51205  0.20461  0.06372  Biso   1.000  C 
  H33      1.0000 0.40148  0.21633  0.06347  Biso   1.000  H 
  H34      1.0000 0.54045  0.06652  0.06411  Biso   1.000  H 
  C19      1.0000 0.56185  0.29207  0.04164  Biso   1.000  C 
  H35      1.0000 0.53345  0.43016  0.04126  Biso   1.000  H 
  H36      1.0000 0.67242  0.28034  0.04189  Biso   1.000  H 
  C20      1.0000 0.49396  0.19855  0.01976  Biso   1.000  C 
  H37      1.0000 0.38339  0.21028  0.01951  Biso   1.000  H 
  H38      1.0000 0.52236  0.06046  0.02015  Biso   1.000  H 
  H39      1.0000 0.52874  0.25962  0.00435  Biso   1.000  H 
  O3       1.0000 0.94571  0.31708  0.48029  Biso   1.000  O 
  H40      1.0000 0.96656  0.27437  0.46463  Biso   1.000  H 
  H41      1.0000 0.92300  0.21453  0.49009  Biso   1.000  H 
  O4       1.0000 0.91996  0.71333  0.47384  Biso   1.000  O 
  C21      1.0000 0.98764  0.80628  0.46086  Biso   1.000  C 
  C22      1.0000 0.91626  0.88738  0.43838  Biso   1.000  C 
  H42      1.0000 0.80633  0.86840  0.43820  Biso   1.000  H 
  C23      1.0000 0.97010  0.79556  0.41692  Biso   1.000  C 
  H43      1.0000 0.94759  0.65585  0.41746  Biso   1.000  H 
  C24      1.0000 0.89872  0.87667  0.39444  Biso   1.000  C 
  H44      1.0000 0.78879  0.85769  0.39426  Biso   1.000  H 
  C25      1.0000 0.95256  0.78485  0.37298  Biso   1.000  C 
  H45      1.0000 0.93004  0.64514  0.37352  Biso   1.000  H 
  C26      1.0000 0.88118  0.86596  0.35050  Biso   1.000  C 
  H46      1.0000 0.77124  0.84699  0.35032  Biso   1.000  H 
  C27      1.0000 0.93501  0.77414  0.32904  Biso   1.000  C 
  H47      1.0000 0.91250  0.63443  0.32957  Biso   1.000  H 
  C28      1.0000 0.86364  0.85525  0.30655  Biso   1.000  C 
  H48      1.0000 0.75370  0.83628  0.30638  Biso   1.000  H 
  H49      1.0000 0.88615  0.99497  0.30602  Biso   1.000  H 
  C29      1.0000 0.91747  0.76343  0.28509  Biso   1.000  C 
  H50      1.0000 0.89495  0.62372  0.28563  Biso   1.000  H 
  C30      1.0000 0.84609  0.84454  0.26261  Biso   1.000  C 
  H51      1.0000 0.73616  0.82557  0.26244  Biso   1.000  H 
  H52      1.0000 0.86861  0.98426  0.26208  Biso   1.000  H 
  C31      1.0000 0.89992  0.75272  0.24115  Biso   1.000  C 
  H53      1.0000 0.87741  0.61301  0.24169  Biso   1.000  H 
  C32      1.0000 0.82855  0.83384  0.21867  Biso   1.000  C 
  H54      1.0000 0.71862  0.81487  0.21849  Biso   1.000  H 
  H55      1.0000 0.85107  0.97355  0.21813  Biso   1.000  H 
  C33      1.0000 0.88238  0.74201  0.19721  Biso   1.000  C 
  H56      1.0000 0.85986  0.60230  0.19775  Biso   1.000  H 
  H57      1.0000 0.99232  0.76098  0.19739  Biso   1.000  H 
  C34      1.0000 0.81101  0.82313  0.17473  Biso   1.000  C 
  H58      1.0000 0.83353  0.96284  0.17419  Biso   1.000  H 
  H59      1.0000 0.70107  0.80416  0.17455  Biso   1.000  H 
  C35      1.0000 0.86484  0.73130  0.15327  Biso   1.000  C 
  H60      1.0000 0.84231  0.59158  0.15381  Biso   1.000  H 
  H61      1.0000 0.97477  0.75026  0.15345  Biso   1.000  H 
  C36      1.0000 0.79347  0.81242  0.13079  Biso   1.000  C 
  H62      1.0000 0.68353  0.79345  0.13061  Biso   1.000  H 
  H63      1.0000 0.81599  0.95213  0.13025  Biso   1.000  H 
  C37      1.0000 0.84729  0.72059  0.10933  Biso   1.000  C 
  H64      1.0000 0.95723  0.73955  0.10950  Biso   1.000  H 
  H65      1.0000 0.82477  0.58087  0.10986  Biso   1.000  H 
  C38      1.0000 0.77592  0.80171  0.08685  Biso   1.000  C 
  H66      1.0000 0.79845  0.94142  0.08631  Biso   1.000  H 
  H67      1.0000 0.66599  0.78275  0.08667  Biso   1.000  H 
  C39      1.0000 0.82975  0.70988  0.06539  Biso   1.000  C 
  H68      1.0000 0.93969  0.72884  0.06556  Biso   1.000  H 
  H69      1.0000 0.80722  0.57016  0.06592  Biso   1.000  H 
  C40      1.0000 0.75838  0.79100  0.04290  Biso   1.000  C 
  H70      1.0000 0.78091  0.93071  0.04237  Biso   1.000  H 
  H71      1.0000 0.64845  0.77204  0.04273  Biso   1.000  H 
  H72      1.0000 0.79597  0.72687  0.02792  Biso   1.000  H 
  H73      1.0000 0.00986  0.77169  0.24133  Biso   1.000  H 
  H74      1.0000 0.02740  0.78241  0.28527  Biso   1.000  H 
  H75      1.0000 0.04495  0.79312  0.32921  Biso   1.000  H 
  H76      1.0000 0.90369  0.00568  0.34996  Biso   1.000  H 
  H77      1.0000 0.06249  0.80383  0.37315  Biso   1.000  H 
  H78      1.0000 0.92123  0.01639  0.39390  Biso   1.000  H 
  H79      1.0000 0.08003  0.81455  0.41710  Biso   1.000  H 
  H80      1.0000 0.93877  0.02710  0.43784  Biso   1.000  H 
  O5       1.0000 0.11312  0.83356  0.46609  Biso   1.000  O 
  Co2      1.0000 0.28496  0.01703  0.47701  Biso   1.000  Co
  O6       1.0000 0.44571  0.18292  0.48029  Biso   1.000  O 
  H81      1.0000 0.46656  0.22563  0.46463  Biso   1.000  H 
  H82      1.0000 0.42300  0.28547  0.49009  Biso   1.000  H 
  C41      1.0000 0.22459  0.15338  0.43727  Biso   1.000  C 
  O7       1.0000 0.29584  0.24044  0.45230  Biso   1.000  O 
  O8       1.0000 0.20830  0.99060  0.43995  Biso   1.000  O 
  C42      1.0000 0.15672  0.24692  0.41539  Biso   1.000  C 
  H83      1.0000 0.04615  0.23522  0.41514  Biso   1.000  H 
  H84      1.0000 0.18514  0.38500  0.41577  Biso   1.000  H 
  C43      1.0000 0.20651  0.15944  0.39331  Biso   1.000  C 
  H85      1.0000 0.31708  0.17115  0.39356  Biso   1.000  H 
  H86      1.0000 0.17809  0.02136  0.39292  Biso   1.000  H 
  C44      1.0000 0.13864  0.25298  0.37143  Biso   1.000  C 
  H87      1.0000 0.02806  0.24127  0.37118  Biso   1.000  H 
  H88      1.0000 0.16705  0.39106  0.37181  Biso   1.000  H 
  C45      1.0000 0.18843  0.16550  0.34935  Biso   1.000  C 
  H89      1.0000 0.16001  0.02742  0.34896  Biso   1.000  H 
  H90      1.0000 0.29900  0.17721  0.34960  Biso   1.000  H 
  C46      1.0000 0.12055  0.25904  0.32747  Biso   1.000  C 
  H91      1.0000 0.14896  0.39712  0.32786  Biso   1.000  H 
  H92      1.0000 0.00998  0.24733  0.32722  Biso   1.000  H 
  C47      1.0000 0.17035  0.17157  0.30539  Biso   1.000  C 
  H93      1.0000 0.28092  0.18328  0.30564  Biso   1.000  H 
  H94      1.0000 0.14193  0.03348  0.30501  Biso   1.000  H 
  C48      1.0000 0.10247  0.26510  0.28351  Biso   1.000  C 
  H95      1.0000 0.13088  0.40318  0.28390  Biso   1.000  H 
  H96      1.0000 0.99190  0.25339  0.28326  Biso   1.000  H 
  C49      1.0000 0.15226  0.17763  0.26143  Biso   1.000  C 
  H97      1.0000 0.12385  0.03954  0.26105  Biso   1.000  H 
  H98      1.0000 0.26283  0.18934  0.26168  Biso   1.000  H 
  C50      1.0000 0.08438  0.27116  0.23955  Biso   1.000  C 
  H99      1.0000 0.11279  0.40924  0.23994  Biso   1.000  H 
  H100     1.0000 0.97381  0.25944  0.23931  Biso   1.000  H 
  C51      1.0000 0.13418  0.18369  0.21748  Biso   1.000  C 
  H101     1.0000 0.24475  0.19540  0.21772  Biso   1.000  H 
  H102     1.0000 0.10577  0.04560  0.21709  Biso   1.000  H 
  C52      1.0000 0.06630  0.27722  0.19560  Biso   1.000  C 
  H103     1.0000 0.09471  0.41530  0.19598  Biso   1.000  H 
  H104     1.0000 0.95573  0.26550  0.19535  Biso   1.000  H 
  C53      1.0000 0.11610  0.18975  0.17352  Biso   1.000  C 
  H105     1.0000 0.08769  0.05166  0.17313  Biso   1.000  H 
  H106     1.0000 0.22667  0.20147  0.17377  Biso   1.000  H 
  C54      1.0000 0.04822  0.28328  0.15164  Biso   1.000  C 
  H107     1.0000 0.07662  0.42136  0.15202  Biso   1.000  H 
  H108     1.0000 0.93765  0.27155  0.15139  Biso   1.000  H 
  C55      1.0000 0.09802  0.19581  0.12956  Biso   1.000  C 
  H109     1.0000 0.20859  0.20753  0.12981  Biso   1.000  H 
  H110     1.0000 0.06961  0.05772  0.12917  Biso   1.000  H 
  C56      1.0000 0.03013  0.28934  0.10768  Biso   1.000  C 
  H111     1.0000 0.05853  0.42742  0.10806  Biso   1.000  H 
  H112     1.0000 0.91956  0.27761  0.10743  Biso   1.000  H 
  C57      1.0000 0.07993  0.20187  0.08560  Biso   1.000  C 
  H113     1.0000 0.05153  0.06378  0.08521  Biso   1.000  H 
  H114     1.0000 0.19050  0.21360  0.08585  Biso   1.000  H 
  C58      1.0000 0.01205  0.29539  0.06372  Biso   1.000  C 
  H115     1.0000 0.04045  0.43348  0.06411  Biso   1.000  H 
  H116     1.0000 0.90148  0.28367  0.06347  Biso   1.000  H 
  C59      1.0000 0.06185  0.20793  0.04164  Biso   1.000  C 
  H117     1.0000 0.17242  0.21966  0.04189  Biso   1.000  H 
  H118     1.0000 0.03345  0.06984  0.04126  Biso   1.000  H 
  C60      1.0000 0.99396  0.30145  0.01976  Biso   1.000  C 
  H119     1.0000 0.88339  0.28972  0.01951  Biso   1.000  H 
  H120     1.0000 0.02874  0.24038  0.00435  Biso   1.000  H 
  H121     1.0000 0.02236  0.43954  0.02015  Biso   1.000  H 
  O9       1.0000 0.41996  0.78667  0.47384  Biso   1.000  O 
  C61      1.0000 0.48764  0.69372  0.46086  Biso   1.000  C 
  O10      1.0000 0.61312  0.66644  0.46609  Biso   1.000  O 
  C62      1.0000 0.41626  0.61262  0.43838  Biso   1.000  C 
  H122     1.0000 0.43877  0.47290  0.43784  Biso   1.000  H 
  H123     1.0000 0.30633  0.63160  0.43820  Biso   1.000  H 
  C63      1.0000 0.47010  0.70444  0.41692  Biso   1.000  C 
  H124     1.0000 0.44759  0.84415  0.41746  Biso   1.000  H 
  H125     1.0000 0.58003  0.68545  0.41710  Biso   1.000  H 
  C64      1.0000 0.39872  0.62333  0.39444  Biso   1.000  C 
  H126     1.0000 0.42123  0.48361  0.39390  Biso   1.000  H 
  H127     1.0000 0.28879  0.64231  0.39426  Biso   1.000  H 
  C65      1.0000 0.45256  0.71515  0.37298  Biso   1.000  C 
  H128     1.0000 0.43004  0.85486  0.37352  Biso   1.000  H 
  H129     1.0000 0.56249  0.69617  0.37315  Biso   1.000  H 
  C66      1.0000 0.38118  0.63404  0.35050  Biso   1.000  C 
  H130     1.0000 0.27124  0.65301  0.35032  Biso   1.000  H 
  H131     1.0000 0.40369  0.49432  0.34996  Biso   1.000  H 
  C67      1.0000 0.43501  0.72586  0.32904  Biso   1.000  C 
  H132     1.0000 0.41250  0.86557  0.32957  Biso   1.000  H 
  H133     1.0000 0.54495  0.70688  0.32921  Biso   1.000  H 
  C68      1.0000 0.36364  0.64475  0.30655  Biso   1.000  C 
  H134     1.0000 0.38615  0.50503  0.30602  Biso   1.000  H 
  H135     1.0000 0.25370  0.66372  0.30638  Biso   1.000  H 
  C69      1.0000 0.41747  0.73657  0.28509  Biso   1.000  C 
  H136     1.0000 0.39495  0.87628  0.28563  Biso   1.000  H 
  H137     1.0000 0.52740  0.71759  0.28527  Biso   1.000  H 
  C70      1.0000 0.34609  0.65546  0.26261  Biso   1.000  C 
  H138     1.0000 0.36861  0.51574  0.26208  Biso   1.000  H 
  H139     1.0000 0.23616  0.67443  0.26244  Biso   1.000  H 
  C71      1.0000 0.39992  0.74728  0.24115  Biso   1.000  C 
  H140     1.0000 0.50986  0.72831  0.24133  Biso   1.000  H 
  H141     1.0000 0.37741  0.88699  0.24169  Biso   1.000  H 
  C72      1.0000 0.32855  0.66616  0.21867  Biso   1.000  C 
  H142     1.0000 0.35107  0.52645  0.21813  Biso   1.000  H 
  H143     1.0000 0.21862  0.68513  0.21849  Biso   1.000  H 
  C73      1.0000 0.38238  0.75799  0.19721  Biso   1.000  C 
  H144     1.0000 0.49232  0.73902  0.19739  Biso   1.000  H 
  H145     1.0000 0.35986  0.89770  0.19775  Biso   1.000  H 
  C74      1.0000 0.31101  0.67687  0.17473  Biso   1.000  C 
  H146     1.0000 0.33353  0.53716  0.17419  Biso   1.000  H 
  H147     1.0000 0.20107  0.69584  0.17455  Biso   1.000  H 
  C75      1.0000 0.36484  0.76870  0.15327  Biso   1.000  C 
  H148     1.0000 0.34231  0.90842  0.15381  Biso   1.000  H 
  H149     1.0000 0.47477  0.74974  0.15345  Biso   1.000  H 
  C76      1.0000 0.29347  0.68758  0.13079  Biso   1.000  C 
  H150     1.0000 0.31599  0.54787  0.13025  Biso   1.000  H 
  H151     1.0000 0.18353  0.70655  0.13061  Biso   1.000  H 
  C77      1.0000 0.34729  0.77941  0.10933  Biso   1.000  C 
  H152     1.0000 0.32477  0.91913  0.10986  Biso   1.000  H 
  H153     1.0000 0.45723  0.76045  0.10950  Biso   1.000  H 
  C78      1.0000 0.27592  0.69829  0.08685  Biso   1.000  C 
  H154     1.0000 0.16599  0.71725  0.08667  Biso   1.000  H 
  H155     1.0000 0.29845  0.55858  0.08631  Biso   1.000  H 
  C79      1.0000 0.32975  0.79012  0.06539  Biso   1.000  C 
  H156     1.0000 0.30722  0.92984  0.06592  Biso   1.000  H 
  H157     1.0000 0.43969  0.77116  0.06556  Biso   1.000  H 
  C80      1.0000 0.25838  0.70900  0.04290  Biso   1.000  C 
  H158     1.0000 0.28091  0.56929  0.04237  Biso   1.000  H 
  H159     1.0000 0.14845  0.72796  0.04273  Biso   1.000  H 
  H160     1.0000 0.29597  0.77313  0.02792  Biso   1.000  H 
  O11      1.0000 0.29726  0.98445  0.51162  Biso   1.000  O 
  H161     1.0000 0.38911  0.93517  0.51696  Biso   1.000  H 
  H162     1.0000 0.22405  0.90140  0.51581  Biso   1.000  H 
  O12      1.0000 0.79726  0.51555  0.51162  Biso   1.000  O 
  H163     1.0000 0.88911  0.56483  0.51696  Biso   1.000  H 
  H164     1.0000 0.72405  0.59860  0.51581  Biso   1.000  H 
