data_image0
_cell_length_a       17.014
_cell_length_b       22.785
_cell_length_c       20.89
_cell_angle_alpha    90
_cell_angle_beta     101.305
_cell_angle_gamma    90

_symmetry_space_group_name_H-M    "P 1"
_symmetry_int_tables_number       1

loop_
  _symmetry_equiv_pos_as_xyz
  'x, y, z'

loop_
  _atom_site_label
  _atom_site_occupancy
  _atom_site_fract_x
  _atom_site_fract_y
  _atom_site_fract_z
  _atom_site_thermal_displace_type
  _atom_site_B_iso_or_equiv
  _atom_site_type_symbol
  Mn1      1.0000 0.00743  0.16135  0.24710  Biso   1.000  Mn
  N1       1.0000 0.00890  0.07357  0.24639  Biso   1.000  N 
  C1       1.0000 0.04028  0.03796  0.20360  Biso   1.000  C 
  C2       1.0000 0.07071  0.05692  0.14958  Biso   1.000  C 
  C3       1.0000 0.10318  0.01082  0.11078  Biso   1.000  C 
  C4       1.0000 0.18487  0.00574  0.11189  Biso   1.000  C 
  H1       1.0000 0.22050  0.03520  0.13250  Biso   1.000  H 
  C5       1.0000 0.21487  0.95758  0.08291  Biso   1.000  C 
  H2       1.0000 0.27090  0.95440  0.08460  Biso   1.000  H 
  C6       1.0000 0.16360  0.91391  0.05142  Biso   1.000  C 
  C7       1.0000 0.19505  0.86018  0.02520  Biso   1.000  C 
  C8       1.0000 0.26550  0.83396  0.05754  Biso   1.000  C 
  H3       1.0000 0.29520  0.85160  0.09600  Biso   1.000  H 
  C9       1.0000 0.29300  0.78225  0.03441  Biso   1.000  C 
  H4       1.0000 0.34150  0.76500  0.05690  Biso   1.000  H 
  C10      1.0000 0.25000  0.75565  0.97860  Biso   1.000  C 
  H5       1.0000 0.26880  0.72030  0.96280  Biso   1.000  H 
  C11      1.0000 0.17985  0.78100  0.94647  Biso   1.000  C 
  H6       1.0000 0.14990  0.76270  0.90850  Biso   1.000  H 
  C12      1.0000 0.15233  0.83305  0.96896  Biso   1.000  C 
  H7       1.0000 0.10420  0.85030  0.94600  Biso   1.000  H 
  C13      1.0000 0.08158  0.92174  0.04689  Biso   1.000  C 
  H8       1.0000 0.04560  0.89400  0.02310  Biso   1.000  H 
  C14      1.0000 0.05085  0.96889  0.07615  Biso   1.000  C 
  H9       1.0000 0.99460  0.97280  0.07280  Biso   1.000  H 
  C15      1.0000 0.06905  0.11504  0.12890  Biso   1.000  C 
  N2       1.0000 0.04090  0.16268  0.16013  Biso   1.000  N 
  C16      1.0000 0.04685  0.21081  0.12127  Biso   1.000  C 
  C17      1.0000 0.07646  0.19304  0.06480  Biso   1.000  C 
  C18      1.0000 0.09144  0.13480  0.07049  Biso   1.000  C 
  H10      1.0000 0.11310  0.11120  0.04070  Biso   1.000  H 
  H11      1.0000 0.08420  0.21760  0.02980  Biso   1.000  H 
  C19      1.0000 0.03278  0.26935  0.13715  Biso   1.000  C 
  C20      1.0000 0.03954  0.31484  0.08665  Biso   1.000  C 
  C21      1.0000 0.09949  0.35731  0.09677  Biso   1.000  C 
  C22      1.0000 0.10621  0.39732  0.04797  Biso   1.000  C 
  H12      1.0000 0.14750  0.42600  0.05580  Biso   1.000  H 
  C23      1.0000 0.05356  0.39614  0.98780  Biso   1.000  C 
  C24      1.0000 0.06207  0.43846  0.93508  Biso   1.000  C 
  C25      1.0000 0.05713  0.41886  0.87068  Biso   1.000  C 
  H13      1.0000 0.04610  0.37870  0.86040  Biso   1.000  H 
  C26      1.0000 0.06820  0.45729  0.82208  Biso   1.000  C 
  H14      1.0000 0.06560  0.44320  0.77890  Biso   1.000  H 
  C27      1.0000 0.08290  0.51634  0.83586  Biso   1.000  C 
  H15      1.0000 0.09060  0.54270  0.80240  Biso   1.000  H 
  C28      1.0000 0.08620  0.53661  0.89911  Biso   1.000  C 
  H16      1.0000 0.09460  0.57710  0.90870  Biso   1.000  H 
  C29      1.0000 0.07720  0.49783  0.94797  Biso   1.000  C 
  H17      1.0000 0.08130  0.51190  0.99130  Biso   1.000  H 
  C30      1.0000 0.99361  0.35349  0.97791  Biso   1.000  C 
  H18      1.0000 0.95700  0.35190  0.93730  Biso   1.000  H 
  C31      1.0000 0.98662  0.31343  0.02645  Biso   1.000  C 
  H19      1.0000 0.94540  0.28470  0.01870  Biso   1.000  H 
  H20      1.0000 0.13610  0.35890  0.13740  Biso   1.000  H 
  C32      1.0000 0.01675  0.28654  0.19736  Biso   1.000  C 
  N3       1.0000 0.00626  0.24943  0.24778  Biso   1.000  N 
  C33      1.0000 0.99373  0.28540  0.29798  Biso   1.000  C 
  C34      1.0000 0.99808  0.34526  0.27948  Biso   1.000  C 
  H21      1.0000 0.99330  0.37850  0.30590  Biso   1.000  H 
  C35      1.0000 0.01023  0.34627  0.21746  Biso   1.000  C 
  H22      1.0000 0.01380  0.38030  0.19190  Biso   1.000  H 
  C36      1.0000 0.97686  0.26650  0.35755  Biso   1.000  C 
  C37      1.0000 0.96438  0.31200  0.40682  Biso   1.000  C 
  C38      1.0000 0.89960  0.35057  0.39345  Biso   1.000  C 
  H23      1.0000 0.86270  0.34780  0.35310  Biso   1.000  H 
  C39      1.0000 0.88857  0.39276  0.43827  Biso   1.000  C 
  H24      1.0000 0.84400  0.41860  0.42820  Biso   1.000  H 
  C40      1.0000 0.94158  0.39832  0.49816  Biso   1.000  C 
  C41      1.0000 0.92940  0.44462  0.54495  Biso   1.000  C 
  C42      1.0000 0.94890  0.43523  0.61224  Biso   1.000  C 
  H25      1.0000 0.97160  0.39880  0.62860  Biso   1.000  H 
  C43      1.0000 0.93550  0.47840  0.65544  Biso   1.000  C 
  H26      1.0000 0.94940  0.47150  0.70110  Biso   1.000  H 
  C44      1.0000 0.90190  0.53189  0.63247  Biso   1.000  C 
  H27      1.0000 0.89200  0.56110  0.66230  Biso   1.000  H 
  C45      1.0000 0.88310  0.54239  0.56636  Biso   1.000  C 
  H28      1.0000 0.86070  0.57900  0.55050  Biso   1.000  H 
  C46      1.0000 0.89690  0.49895  0.52277  Biso   1.000  C 
  H29      1.0000 0.88390  0.50640  0.47720  Biso   1.000  H 
  C47      1.0000 0.00527  0.35889  0.51139  Biso   1.000  C 
  H30      1.0000 0.04180  0.36130  0.55200  Biso   1.000  H 
  C48      1.0000 0.01684  0.31623  0.46682  Biso   1.000  C 
  H31      1.0000 0.06070  0.28980  0.47730  Biso   1.000  H 
  C49      1.0000 0.96417  0.20761  0.37253  Biso   1.000  C 
  N4       1.0000 0.97325  0.15962  0.33366  Biso   1.000  N 
  C50      1.0000 0.94532  0.11157  0.36296  Biso   1.000  C 
  C51      1.0000 0.91998  0.12994  0.42129  Biso   1.000  C 
  C52      1.0000 0.93280  0.18835  0.42815  Biso   1.000  C 
  H32      1.0000 0.92300  0.21220  0.46310  Biso   1.000  H 
  H33      1.0000 0.89800  0.10540  0.45010  Biso   1.000  H 
  C53      1.0000 0.94535  0.05369  0.34116  Biso   1.000  C 
  C54      1.0000 0.90946  0.00675  0.37755  Biso   1.000  C 
  C55      1.0000 0.82714  0.00404  0.37362  Biso   1.000  C 
  H34      1.0000 0.79370  0.03380  0.35100  Biso   1.000  H 
  C56      1.0000 0.79323  0.95778  0.40278  Biso   1.000  C 
  H35      1.0000 0.73680  0.95670  0.39980  Biso   1.000  H 
  C57      1.0000 0.84022  0.91329  0.43611  Biso   1.000  C 
  C58      1.0000 0.80524  0.86307  0.46610  Biso   1.000  C 
  C59      1.0000 0.73110  0.83875  0.43689  Biso   1.000  C 
  H36      1.0000 0.70180  0.85540  0.39770  Biso   1.000  H 
  C60      1.0000 0.69990  0.79094  0.46420  Biso   1.000  C 
  H37      1.0000 0.64930  0.77540  0.44400  Biso   1.000  H 
  C61      1.0000 0.74190  0.76563  0.52070  Biso   1.000  C 
  H38      1.0000 0.72080  0.73220  0.53870  Biso   1.000  H 
  C62      1.0000 0.81500  0.78920  0.55111  Biso   1.000  C 
  H39      1.0000 0.84370  0.77230  0.59040  Biso   1.000  H 
  C63      1.0000 0.84630  0.83753  0.52398  Biso   1.000  C 
  H40      1.0000 0.89630  0.85340  0.54510  Biso   1.000  H 
  C64      1.0000 0.92349  0.91761  0.44097  Biso   1.000  C 
  H41      1.0000 0.95740  0.88860  0.46460  Biso   1.000  H 
  C65      1.0000 0.95705  0.96309  0.41212  Biso   1.000  C 
  H42      1.0000 0.01360  0.96470  0.41590  Biso   1.000  H 
  C66      1.0000 0.97947  0.03638  0.28840  Biso   1.000  C 
  C67      1.0000 0.99220  0.97674  0.27114  Biso   1.000  C 
  H43      1.0000 0.97640  0.94270  0.29160  Biso   1.000  H 
  C68      1.0000 0.03078  0.97771  0.22036  Biso   1.000  C 
  H44      1.0000 0.04840  0.94450  0.19960  Biso   1.000  H 
  N5       1.0000 0.14256  0.16640  0.29271  Biso   1.000  N 
  C69      1.0000 0.19060  0.18910  0.26970  Biso   1.000  C 
  C70      1.0000 0.24780  0.21820  0.24030  Biso   1.000  C 
  C71      1.0000 0.28280  0.18923  0.19275  Biso   1.000  C 
  N6       1.0000 0.30990  0.16060  0.15720  Biso   1.000  N 
  C72      1.0000 0.26720  0.27810  0.25550  Biso   1.000  C 
  C73      1.0000 0.23140  0.30829  0.30348  Biso   1.000  C 
  N7       1.0000 0.20220  0.33550  0.33880  Biso   1.000  N 
  C74      1.0000 0.32380  0.30850  0.22630  Biso   1.000  C 
  N8       1.0000 0.37101  0.33349  0.20305  Biso   1.000  N 
  Mn2      1.0000 0.50743  0.33865  0.24710  Biso   1.000  Mn
  N9       1.0000 0.54090  0.33732  0.16013  Biso   1.000  N 
  C75      1.0000 0.56905  0.38496  0.12890  Biso   1.000  C 
  C76      1.0000 0.57071  0.44308  0.14958  Biso   1.000  C 
  C77      1.0000 0.60318  0.48918  0.11078  Biso   1.000  C 
  C78      1.0000 0.68487  0.49426  0.11189  Biso   1.000  C 
  H45      1.0000 0.72050  0.46480  0.13250  Biso   1.000  H 
  C79      1.0000 0.71487  0.54242  0.08291  Biso   1.000  C 
  H46      1.0000 0.77090  0.54560  0.08460  Biso   1.000  H 
  C80      1.0000 0.66360  0.58609  0.05142  Biso   1.000  C 
  C81      1.0000 0.69505  0.63982  0.02520  Biso   1.000  C 
  C82      1.0000 0.76550  0.66604  0.05754  Biso   1.000  C 
  H47      1.0000 0.79520  0.64840  0.09600  Biso   1.000  H 
  C83      1.0000 0.79300  0.71775  0.03441  Biso   1.000  C 
  H48      1.0000 0.84150  0.73500  0.05690  Biso   1.000  H 
  C84      1.0000 0.75000  0.74435  0.97860  Biso   1.000  C 
  H49      1.0000 0.76880  0.77970  0.96280  Biso   1.000  H 
  C85      1.0000 0.67985  0.71900  0.94647  Biso   1.000  C 
  H50      1.0000 0.64990  0.73730  0.90850  Biso   1.000  H 
  C86      1.0000 0.65233  0.66695  0.96896  Biso   1.000  C 
  H51      1.0000 0.60420  0.64970  0.94600  Biso   1.000  H 
  C87      1.0000 0.58158  0.57826  0.04689  Biso   1.000  C 
  H52      1.0000 0.54560  0.60600  0.02310  Biso   1.000  H 
  C88      1.0000 0.55085  0.53111  0.07615  Biso   1.000  C 
  H53      1.0000 0.49460  0.52720  0.07280  Biso   1.000  H 
  C89      1.0000 0.54028  0.46204  0.20360  Biso   1.000  C 
  C90      1.0000 0.53078  0.52229  0.22036  Biso   1.000  C 
  H54      1.0000 0.54840  0.55550  0.19960  Biso   1.000  H 
  C91      1.0000 0.49220  0.52326  0.27114  Biso   1.000  C 
  C92      1.0000 0.47947  0.46362  0.28840  Biso   1.000  C 
  C93      1.0000 0.44535  0.44631  0.34116  Biso   1.000  C 
  C94      1.0000 0.44532  0.38843  0.36296  Biso   1.000  C 
  C95      1.0000 0.41998  0.37006  0.42129  Biso   1.000  C 
  H55      1.0000 0.39800  0.39460  0.45010  Biso   1.000  H 
  C96      1.0000 0.43280  0.31165  0.42815  Biso   1.000  C 
  H56      1.0000 0.42300  0.28780  0.46310  Biso   1.000  H 
  C97      1.0000 0.46417  0.29239  0.37253  Biso   1.000  C 
  C98      1.0000 0.47686  0.23350  0.35755  Biso   1.000  C 
  C99      1.0000 0.46438  0.18800  0.40682  Biso   1.000  C 
  C100     1.0000 0.39960  0.14943  0.39345  Biso   1.000  C 
  H57      1.0000 0.36270  0.15220  0.35310  Biso   1.000  H 
  C101     1.0000 0.38857  0.10724  0.43827  Biso   1.000  C 
  H58      1.0000 0.34400  0.08140  0.42820  Biso   1.000  H 
  C102     1.0000 0.44158  0.10168  0.49816  Biso   1.000  C 
  C103     1.0000 0.42940  0.05538  0.54495  Biso   1.000  C 
  C104     1.0000 0.39690  0.00105  0.52277  Biso   1.000  C 
  H59      1.0000 0.38390  0.99360  0.47720  Biso   1.000  H 
  C105     1.0000 0.38310  0.95761  0.56636  Biso   1.000  C 
  H60      1.0000 0.36070  0.92100  0.55050  Biso   1.000  H 
  C106     1.0000 0.40190  0.96811  0.63247  Biso   1.000  C 
  H61      1.0000 0.39200  0.93890  0.66230  Biso   1.000  H 
  C107     1.0000 0.43550  0.02160  0.65544  Biso   1.000  C 
  C108     1.0000 0.44890  0.06477  0.61224  Biso   1.000  C 
  H62      1.0000 0.47160  0.10120  0.62860  Biso   1.000  H 
  H63      1.0000 0.44940  0.02850  0.70110  Biso   1.000  H 
  C109     1.0000 0.50527  0.14111  0.51139  Biso   1.000  C 
  H64      1.0000 0.54180  0.13870  0.55200  Biso   1.000  H 
  C110     1.0000 0.51684  0.18377  0.46682  Biso   1.000  C 
  H65      1.0000 0.56070  0.21020  0.47730  Biso   1.000  H 
  C111     1.0000 0.49373  0.21460  0.29798  Biso   1.000  C 
  C112     1.0000 0.49808  0.15474  0.27948  Biso   1.000  C 
  C113     1.0000 0.51023  0.15373  0.21746  Biso   1.000  C 
  H66      1.0000 0.51380  0.11970  0.19190  Biso   1.000  H 
  C114     1.0000 0.51675  0.21346  0.19736  Biso   1.000  C 
  C115     1.0000 0.53278  0.23065  0.13715  Biso   1.000  C 
  C116     1.0000 0.53954  0.18516  0.08665  Biso   1.000  C 
  C117     1.0000 0.59949  0.14269  0.09677  Biso   1.000  C 
  C118     1.0000 0.60621  0.10268  0.04797  Biso   1.000  C 
  H67      1.0000 0.64750  0.07400  0.05580  Biso   1.000  H 
  C119     1.0000 0.55356  0.10386  0.98780  Biso   1.000  C 
  C120     1.0000 0.56207  0.06154  0.93508  Biso   1.000  C 
  C121     1.0000 0.57720  0.00217  0.94797  Biso   1.000  C 
  C122     1.0000 0.58620  0.96339  0.89911  Biso   1.000  C 
  H68      1.0000 0.59460  0.92290  0.90870  Biso   1.000  H 
  C123     1.0000 0.58290  0.98366  0.83586  Biso   1.000  C 
  H69      1.0000 0.59060  0.95730  0.80240  Biso   1.000  H 
  C124     1.0000 0.56820  0.04271  0.82208  Biso   1.000  C 
  H70      1.0000 0.56560  0.05680  0.77890  Biso   1.000  H 
  C125     1.0000 0.55713  0.08114  0.87068  Biso   1.000  C 
  H71      1.0000 0.54610  0.12130  0.86040  Biso   1.000  H 
  H72      1.0000 0.58130  0.98810  0.99130  Biso   1.000  H 
  C126     1.0000 0.49361  0.14651  0.97791  Biso   1.000  C 
  H73      1.0000 0.45700  0.14810  0.93730  Biso   1.000  H 
  C127     1.0000 0.48662  0.18657  0.02645  Biso   1.000  C 
  H74      1.0000 0.44540  0.21530  0.01870  Biso   1.000  H 
  H75      1.0000 0.63610  0.14110  0.13740  Biso   1.000  H 
  C128     1.0000 0.54685  0.28919  0.12127  Biso   1.000  C 
  C129     1.0000 0.57646  0.30696  0.06480  Biso   1.000  C 
  H76      1.0000 0.58420  0.28240  0.02980  Biso   1.000  H 
  C130     1.0000 0.59144  0.36520  0.07049  Biso   1.000  C 
  H77      1.0000 0.61310  0.38880  0.04070  Biso   1.000  H 
  N10      1.0000 0.50626  0.25057  0.24778  Biso   1.000  N 
  H78      1.0000 0.49330  0.12150  0.30590  Biso   1.000  H 
  N11      1.0000 0.47325  0.34038  0.33366  Biso   1.000  N 
  C131     1.0000 0.40946  0.49325  0.37755  Biso   1.000  C 
  C132     1.0000 0.32714  0.49596  0.37362  Biso   1.000  C 
  H79      1.0000 0.29370  0.46620  0.35100  Biso   1.000  H 
  C133     1.0000 0.29323  0.54222  0.40278  Biso   1.000  C 
  H80      1.0000 0.23680  0.54330  0.39980  Biso   1.000  H 
  C134     1.0000 0.34022  0.58671  0.43611  Biso   1.000  C 
  C135     1.0000 0.30524  0.63693  0.46610  Biso   1.000  C 
  C136     1.0000 0.23110  0.66125  0.43689  Biso   1.000  C 
  H81      1.0000 0.20180  0.64460  0.39770  Biso   1.000  H 
  C137     1.0000 0.19990  0.70906  0.46420  Biso   1.000  C 
  H82      1.0000 0.14930  0.72460  0.44400  Biso   1.000  H 
  C138     1.0000 0.24190  0.73437  0.52070  Biso   1.000  C 
  C139     1.0000 0.31500  0.71080  0.55111  Biso   1.000  C 
  C140     1.0000 0.34630  0.66247  0.52398  Biso   1.000  C 
  H83      1.0000 0.39630  0.64660  0.54510  Biso   1.000  H 
  H84      1.0000 0.34370  0.72770  0.59040  Biso   1.000  H 
  H85      1.0000 0.22080  0.76780  0.53870  Biso   1.000  H 
  C141     1.0000 0.42349  0.58239  0.44097  Biso   1.000  C 
  H86      1.0000 0.45740  0.61140  0.46460  Biso   1.000  H 
  C142     1.0000 0.45705  0.53691  0.41212  Biso   1.000  C 
  H87      1.0000 0.51360  0.53530  0.41590  Biso   1.000  H 
  N12      1.0000 0.50890  0.42643  0.24639  Biso   1.000  N 
  H88      1.0000 0.47640  0.55730  0.29160  Biso   1.000  H 
  N13      1.0000 0.64256  0.33360  0.29271  Biso   1.000  N 
  C143     1.0000 0.69060  0.31090  0.26970  Biso   1.000  C 
  C144     1.0000 0.74780  0.28180  0.24030  Biso   1.000  C 
  C145     1.0000 0.76720  0.22190  0.25550  Biso   1.000  C 
  C146     1.0000 0.73140  0.19171  0.30348  Biso   1.000  C 
  N14      1.0000 0.70220  0.16450  0.33880  Biso   1.000  N 
  C147     1.0000 0.82380  0.19150  0.22630  Biso   1.000  C 
  N15      1.0000 0.87101  0.16651  0.20305  Biso   1.000  N 
  C148     1.0000 0.78280  0.31077  0.19275  Biso   1.000  C 
  N16      1.0000 0.80990  0.33940  0.15720  Biso   1.000  N 
