data_image0
_cell_length_a       11.196
_cell_length_b       15.5253
_cell_length_c       11.311
_cell_angle_alpha    90
_cell_angle_beta     108.132
_cell_angle_gamma    90

_symmetry_space_group_name_H-M    "P 1"
_symmetry_int_tables_number       1

loop_
  _symmetry_equiv_pos_as_xyz
  'x, y, z'

loop_
  _atom_site_label
  _atom_site_occupancy
  _atom_site_fract_x
  _atom_site_fract_y
  _atom_site_fract_z
  _atom_site_thermal_displace_type
  _atom_site_B_iso_or_equiv
  _atom_site_type_symbol
  I1       1.0000 0.47562  0.83603  0.35654  Biso   1.000  I 
  Cu1      1.0000 0.39886  0.67731  0.34085  Biso   1.000  Cu
  S1       1.0000 0.57062  0.58587  0.43258  Biso   1.000  S 
  C1       1.0000 0.67700  0.60160  0.62000  Biso   1.000  C 
  C2       1.0000 0.66420  0.67850  0.61300  Biso   1.000  C 
  H1       1.0000 0.57630  0.69250  0.58830  Biso   1.000  H 
  H2       1.0000 0.70560  0.70370  0.69280  Biso   1.000  H 
  H3       1.0000 0.70050  0.70070  0.55270  Biso   1.000  H 
  H4       1.0000 0.63880  0.57510  0.67680  Biso   1.000  H 
  H5       1.0000 0.76350  0.58320  0.63780  Biso   1.000  H 
  C3       1.0000 0.68230  0.59140  0.35390  Biso   1.000  C 
  C4       1.0000 0.64490  0.56280  0.23240  Biso   1.000  C 
  H6       1.0000 0.56180  0.54630  0.19490  Biso   1.000  H 
  C5       1.0000 0.72780  0.55840  0.16700  Biso   1.000  C 
  H7       1.0000 0.70240  0.53530  0.08720  Biso   1.000  H 
  N1       1.0000 0.84720  0.58730  0.21700  Biso   1.000  N 
  C6       1.0000 0.93640  0.58130  0.14450  Biso   1.000  C 
  C7       1.0000 0.89390  0.62480  0.02310  Biso   1.000  C 
  H8       1.0000 0.88070  0.68480  0.03510  Biso   1.000  H 
  H9       1.0000 0.81660  0.59930  0.97300  Biso   1.000  H 
  H10      1.0000 0.95660  0.61860  0.98200  Biso   1.000  H 
  H11      1.0000 0.95090  0.52100  0.13120  Biso   1.000  H 
  H12      1.0000 0.01600  0.60620  0.19310  Biso   1.000  H 
  C8       1.0000 0.88340  0.61620  0.33300  Biso   1.000  C 
  H13      1.0000 0.96580  0.63490  0.36760  Biso   1.000  H 
  C9       1.0000 0.80590  0.61950  0.40220  Biso   1.000  C 
  H14      1.0000 0.83480  0.64080  0.48300  Biso   1.000  H 
  I2       1.0000 0.25417  0.62752  0.47562  Biso   1.000  I 
  Cu2      1.0000 0.26214  0.79453  0.42039  Biso   1.000  Cu
  I3       1.0000 0.06198  0.83553  0.23656  Biso   1.000  I 
  Cu3      1.0000 0.25778  0.78826  0.17456  Biso   1.000  Cu
  Cu4      1.0000 0.26214  0.70547  0.92039  Biso   1.000  Cu
  Cu5      1.0000 0.39886  0.82269  0.84085  Biso   1.000  Cu
  S2       1.0000 0.57062  0.91413  0.93258  Biso   1.000  S 
  C10      1.0000 0.68230  0.90860  0.85390  Biso   1.000  C 
  C11      1.0000 0.64490  0.93720  0.73240  Biso   1.000  C 
  C12      1.0000 0.72780  0.94160  0.66700  Biso   1.000  C 
  H15      1.0000 0.70240  0.96470  0.58720  Biso   1.000  H 
  N2       1.0000 0.84720  0.91270  0.71700  Biso   1.000  N 
  C13      1.0000 0.93640  0.91870  0.64450  Biso   1.000  C 
  C14      1.0000 0.89390  0.87520  0.52310  Biso   1.000  C 
  H16      1.0000 0.81660  0.90070  0.47300  Biso   1.000  H 
  H17      1.0000 0.95660  0.88140  0.48200  Biso   1.000  H 
  H18      1.0000 0.88070  0.81520  0.53510  Biso   1.000  H 
  H19      1.0000 0.95090  0.97900  0.63120  Biso   1.000  H 
  H20      1.0000 0.01600  0.89380  0.69310  Biso   1.000  H 
  C15      1.0000 0.88340  0.88380  0.83300  Biso   1.000  C 
  H21      1.0000 0.96580  0.86510  0.86760  Biso   1.000  H 
  C16      1.0000 0.80590  0.88050  0.90220  Biso   1.000  C 
  H22      1.0000 0.83480  0.85920  0.98300  Biso   1.000  H 
  H23      1.0000 0.56180  0.95370  0.69490  Biso   1.000  H 
  C17      1.0000 0.67700  0.89840  0.12000  Biso   1.000  C 
  H24      1.0000 0.76350  0.91680  0.13780  Biso   1.000  H 
  C18      1.0000 0.66420  0.82150  0.11300  Biso   1.000  C 
  H25      1.0000 0.57630  0.80750  0.08830  Biso   1.000  H 
  H26      1.0000 0.70050  0.79930  0.05270  Biso   1.000  H 
  H27      1.0000 0.70560  0.79630  0.19280  Biso   1.000  H 
  H28      1.0000 0.63880  0.92490  0.17680  Biso   1.000  H 
  I4       1.0000 0.47562  0.66397  0.85654  Biso   1.000  I 
  Cu6      1.0000 0.25778  0.71174  0.67456  Biso   1.000  Cu
  I5       1.0000 0.06198  0.66447  0.73656  Biso   1.000  I 
  I6       1.0000 0.27820  0.88629  0.62019  Biso   1.000  I 
  I7       1.0000 0.25417  0.87248  0.97562  Biso   1.000  I 
  I8       1.0000 0.27820  0.61371  0.12019  Biso   1.000  I 
