data_image0
_cell_length_a       6.2528
_cell_length_b       12.5234
_cell_length_c       10.2768
_cell_angle_alpha    90
_cell_angle_beta     91.269
_cell_angle_gamma    90

_symmetry_space_group_name_H-M    "P 1"
_symmetry_int_tables_number       1

loop_
  _symmetry_equiv_pos_as_xyz
  'x, y, z'

loop_
  _atom_site_label
  _atom_site_occupancy
  _atom_site_fract_x
  _atom_site_fract_y
  _atom_site_fract_z
  _atom_site_thermal_displace_type
  _atom_site_B_iso_or_equiv
  _atom_site_type_symbol
  Ni1      1.0000 0.49480  0.75396  0.83943  Biso   1.000  Ni
  C1       1.0000 0.62200  0.61380  0.98150  Biso   1.000  C 
  O1       1.0000 0.74130  0.65038  0.89290  Biso   1.000  O 
  O2       1.0000 0.43690  0.64777  0.99730  Biso   1.000  O 
  C2       1.0000 0.70790  0.52300  0.06460  Biso   1.000  C 
  C3       1.0000 0.90770  0.48090  0.04410  Biso   1.000  C 
  C4       1.0000 0.98030  0.39680  0.12170  Biso   1.000  C 
  N1       1.0000 0.86110  0.35390  0.21510  Biso   1.000  N 
  C5       1.0000 0.66450  0.39550  0.23460  Biso   1.000  C 
  H1       1.0000 0.57930  0.36540  0.30070  Biso   1.000  H 
  C6       1.0000 0.58260  0.47970  0.16260  Biso   1.000  C 
  H2       1.0000 0.44460  0.50750  0.17910  Biso   1.000  H 
  Ni2      1.0000 0.99480  0.24604  0.33943  Biso   1.000  Ni
  O3       1.0000 0.75490  0.13308  0.37020  Biso   1.000  O 
  C7       1.0000 0.87800  0.08930  0.45500  Biso   1.000  C 
  C8       1.0000 0.79320  0.99800  0.53370  Biso   1.000  C 
  C9       1.0000 0.91710  0.95460  0.63540  Biso   1.000  C 
  C10      1.0000 0.82850  0.87770  0.71370  Biso   1.000  C 
  H3       1.0000 0.91330  0.84830  0.78260  Biso   1.000  H 
  N2       1.0000 0.62790  0.84290  0.69620  Biso   1.000  N 
  C11      1.0000 0.51150  0.88090  0.59500  Biso   1.000  C 
  H4       1.0000 0.37210  0.85300  0.57910  Biso   1.000  H 
  C12      1.0000 0.58780  0.95930  0.51340  Biso   1.000  C 
  H5       1.0000 0.50020  0.98620  0.44410  Biso   1.000  H 
  H6       1.0000 0.06020  0.97780  0.65050  Biso   1.000  H 
  O4       1.0000 0.06650  0.11980  0.47420  Biso   1.000  O 
  O5       1.0000 0.93690  0.35223  0.49730  Biso   1.000  O 
  C13      1.0000 0.12200  0.38620  0.48150  Biso   1.000  C 
  O6       1.0000 0.24130  0.34962  0.39290  Biso   1.000  O 
  C14      1.0000 0.20790  0.47700  0.56460  Biso   1.000  C 
  C15      1.0000 0.40770  0.51910  0.54410  Biso   1.000  C 
  H7       1.0000 0.49510  0.49100  0.47780  Biso   1.000  H 
  C16      1.0000 0.48030  0.60320  0.62170  Biso   1.000  C 
  H8       1.0000 0.61910  0.63130  0.60790  Biso   1.000  H 
  N3       1.0000 0.36110  0.64610  0.71510  Biso   1.000  N 
  C17      1.0000 0.16450  0.60450  0.73460  Biso   1.000  C 
  C18      1.0000 0.08260  0.52030  0.66260  Biso   1.000  C 
  H9       1.0000 0.94460  0.49250  0.67910  Biso   1.000  H 
  H10      1.0000 0.07930  0.63460  0.80070  Biso   1.000  H 
  N4       1.0000 0.12790  0.15710  0.19620  Biso   1.000  N 
  C19      1.0000 0.32850  0.12230  0.21370  Biso   1.000  C 
  H11      1.0000 0.41330  0.15170  0.28260  Biso   1.000  H 
  C20      1.0000 0.41710  0.04540  0.13540  Biso   1.000  C 
  H12      1.0000 0.56020  0.02220  0.15050  Biso   1.000  H 
  C21      1.0000 0.29320  0.00200  0.03370  Biso   1.000  C 
  C22      1.0000 0.37800  0.91070  0.95500  Biso   1.000  C 
  O7       1.0000 0.25490  0.86692  0.87020  Biso   1.000  O 
  O8       1.0000 0.56650  0.88020  0.97420  Biso   1.000  O 
  C23      1.0000 0.08780  0.04070  0.01340  Biso   1.000  C 
  C24      1.0000 0.01150  0.11910  0.09500  Biso   1.000  C 
  H13      1.0000 0.87210  0.14700  0.07910  Biso   1.000  H 
  H14      1.0000 0.00020  0.01380  0.94410  Biso   1.000  H 
  H15      1.0000 0.11910  0.36870  0.10790  Biso   1.000  H 
  H16      1.0000 0.99510  0.50900  0.97780  Biso   1.000  H 
