data_image0
_cell_length_a       10.1015
_cell_length_b       11.0232
_cell_length_c       32.646
_cell_angle_alpha    90
_cell_angle_beta     93.524
_cell_angle_gamma    90

_symmetry_space_group_name_H-M    "P 1"
_symmetry_int_tables_number       1

loop_
  _symmetry_equiv_pos_as_xyz
  'x, y, z'

loop_
  _atom_site_label
  _atom_site_occupancy
  _atom_site_fract_x
  _atom_site_fract_y
  _atom_site_fract_z
  _atom_site_thermal_displace_type
  _atom_site_B_iso_or_equiv
  _atom_site_type_symbol
  Ag1      1.0000 0.15201  0.13489  0.41053  Biso   1.000  Ag
  N1       1.0000 0.24580  0.09500  0.35252  Biso   1.000  N 
  C1       1.0000 0.20100  0.01850  0.32412  Biso   1.000  C 
  N2       1.0000 0.28240  0.00590  0.29278  Biso   1.000  N 
  C2       1.0000 0.38950  0.08410  0.30185  Biso   1.000  C 
  C3       1.0000 0.50460  0.10770  0.28164  Biso   1.000  C 
  H1       1.0000 0.51890  0.07440  0.25610  Biso   1.000  H 
  C4       1.0000 0.59600  0.18340  0.30180  Biso   1.000  C 
  H2       1.0000 0.67420  0.20140  0.28950  Biso   1.000  H 
  C5       1.0000 0.57500  0.23380  0.34003  Biso   1.000  C 
  H3       1.0000 0.64030  0.28260  0.35280  Biso   1.000  H 
  C6       1.0000 0.45960  0.21290  0.35925  Biso   1.000  C 
  H4       1.0000 0.44460  0.24790  0.38450  Biso   1.000  H 
  C7       1.0000 0.36650  0.13710  0.33923  Biso   1.000  C 
  C8       1.0000 0.25920  0.94510  0.25320  Biso   1.000  C 
  H5       1.0000 0.34250  0.91180  0.24500  Biso   1.000  H 
  H6       1.0000 0.19860  0.87800  0.25640  Biso   1.000  H 
  C9       1.0000 0.20260  0.02740  0.21957  Biso   1.000  C 
  C10      1.0000 0.12670  0.12920  0.22726  Biso   1.000  C 
  H7       1.0000 0.11440  0.15190  0.25420  Biso   1.000  H 
  C11      1.0000 0.06940  0.19720  0.19523  Biso   1.000  C 
  H8       1.0000 0.01860  0.26470  0.20100  Biso   1.000  H 
  C12      1.0000 0.08630  0.16630  0.15440  Biso   1.000  C 
  C13      1.0000 0.16410  0.06470  0.14691  Biso   1.000  C 
  H9       1.0000 0.17760  0.04230  0.12000  Biso   1.000  H 
  C14      1.0000 0.22120  0.99690  0.17900  Biso   1.000  C 
  H10      1.0000 0.27280  0.92990  0.17330  Biso   1.000  H 
  C15      1.0000 0.02090  0.23590  0.12011  Biso   1.000  C 
  C16      1.0000 0.98210  0.18050  0.08281  Biso   1.000  C 
  C17      1.0000 0.91580  0.24410  0.05142  Biso   1.000  C 
  H11      1.0000 0.89110  0.20480  0.02690  Biso   1.000  H 
  C18      1.0000 0.88550  0.36660  0.05603  Biso   1.000  C 
  C19      1.0000 0.80590  0.43450  0.02233  Biso   1.000  C 
  H12      1.0000 0.86680  0.47260  0.00440  Biso   1.000  H 
  H13      1.0000 0.75270  0.37680  0.00610  Biso   1.000  H 
  N3       1.0000 0.71840  0.52770  0.03786  Biso   1.000  N 
  C20      1.0000 0.59290  0.52070  0.04890  Biso   1.000  C 
  C21      1.0000 0.51080  0.40300  0.05241  Biso   1.000  C 
  C22      1.0000 0.56440  0.28840  0.04970  Biso   1.000  C 
  H14      1.0000 0.65400  0.27710  0.04590  Biso   1.000  H 
  C23      1.0000 0.47530  0.18660  0.05320  Biso   1.000  C 
  H15      1.0000 0.50500  0.10700  0.05140  Biso   1.000  H 
  C24      1.0000 0.34670  0.21190  0.05928  Biso   1.000  C 
  C25      1.0000 0.30830  0.32890  0.06161  Biso   1.000  C 
  H16      1.0000 0.21980  0.34380  0.06620  Biso   1.000  H 
  N4       1.0000 0.38530  0.42240  0.05789  Biso   1.000  N 
  Ag2      1.0000 0.34799  0.63489  0.08947  Biso   1.000  Ag
  O1       1.0000 0.19380  0.76200  0.04811  Biso   1.000  O 
  N5       1.0000 0.22890  0.86900  0.05740  Biso   1.000  N 
  O2       1.0000 0.32260  0.88470  0.08390  Biso   1.000  O 
  O3       1.0000 0.16990  0.95590  0.04096  Biso   1.000  O 
  N6       1.0000 0.54020  0.62310  0.05829  Biso   1.000  N 
  C26      1.0000 0.63960  0.70710  0.05132  Biso   1.000  C 
  C27      1.0000 0.63360  0.83460  0.05489  Biso   1.000  C 
  H17      1.0000 0.55810  0.87430  0.06290  Biso   1.000  H 
  C28      1.0000 0.74850  0.89770  0.04565  Biso   1.000  C 
  H18      1.0000 0.74900  0.98200  0.04620  Biso   1.000  H 
  C29      1.0000 0.86040  0.83620  0.03572  Biso   1.000  C 
  H19      1.0000 0.93650  0.88050  0.03130  Biso   1.000  H 
  C30      1.0000 0.86490  0.71480  0.03212  Biso   1.000  C 
  H20      1.0000 0.94060  0.67510  0.02430  Biso   1.000  H 
  C31      1.0000 0.75370  0.65320  0.04043  Biso   1.000  C 
  N7       1.0000 0.25420  0.59500  0.14748  Biso   1.000  N 
  C32      1.0000 0.13350  0.63710  0.16077  Biso   1.000  C 
  C33      1.0000 0.04040  0.71290  0.14075  Biso   1.000  C 
  H21      1.0000 0.05540  0.74790  0.11550  Biso   1.000  H 
  C34      1.0000 0.92500  0.73380  0.15997  Biso   1.000  C 
  H22      1.0000 0.85970  0.78260  0.14720  Biso   1.000  H 
  C35      1.0000 0.90400  0.68340  0.19820  Biso   1.000  C 
  H23      1.0000 0.82580  0.70140  0.21050  Biso   1.000  H 
  C36      1.0000 0.99540  0.60770  0.21836  Biso   1.000  C 
  H24      1.0000 0.98110  0.57440  0.24390  Biso   1.000  H 
  C37      1.0000 0.11050  0.58410  0.19815  Biso   1.000  C 
  N8       1.0000 0.21760  0.50590  0.20722  Biso   1.000  N 
  C38      1.0000 0.24080  0.44510  0.24680  Biso   1.000  C 
  H25      1.0000 0.30140  0.37800  0.24360  Biso   1.000  H 
  H26      1.0000 0.15750  0.41180  0.25500  Biso   1.000  H 
  C39      1.0000 0.29740  0.52740  0.28043  Biso   1.000  C 
  C40      1.0000 0.37330  0.62920  0.27274  Biso   1.000  C 
  H27      1.0000 0.38560  0.65190  0.24580  Biso   1.000  H 
  C41      1.0000 0.43060  0.69720  0.30477  Biso   1.000  C 
  H28      1.0000 0.48140  0.76470  0.29900  Biso   1.000  H 
  C42      1.0000 0.41370  0.66630  0.34560  Biso   1.000  C 
  C43      1.0000 0.33590  0.56470  0.35309  Biso   1.000  C 
  H29      1.0000 0.32240  0.54230  0.38000  Biso   1.000  H 
  C44      1.0000 0.27880  0.49690  0.32100  Biso   1.000  C 
  H30      1.0000 0.22720  0.42990  0.32670  Biso   1.000  H 
  C45      1.0000 0.47910  0.73590  0.37989  Biso   1.000  C 
  C46      1.0000 0.50550  0.85940  0.37609  Biso   1.000  C 
  H31      1.0000 0.47790  0.89940  0.35200  Biso   1.000  H 
  C47      1.0000 0.57220  0.92420  0.40754  Biso   1.000  C 
  H32      1.0000 0.58860  0.00650  0.40420  Biso   1.000  H 
  C48      1.0000 0.61450  0.86660  0.44397  Biso   1.000  C 
  C49      1.0000 0.58420  0.74410  0.44858  Biso   1.000  C 
  H33      1.0000 0.60890  0.70480  0.47310  Biso   1.000  H 
  C50      1.0000 0.51790  0.68050  0.41719  Biso   1.000  C 
  H34      1.0000 0.49860  0.59890  0.42100  Biso   1.000  H 
  C51      1.0000 0.69410  0.93450  0.47767  Biso   1.000  C 
  H35      1.0000 0.74730  0.87680  0.49390  Biso   1.000  H 
  H36      1.0000 0.63320  0.97260  0.49560  Biso   1.000  H 
  N9       1.0000 0.78160  0.02770  0.46214  Biso   1.000  N 
  C52      1.0000 0.90710  0.02070  0.45110  Biso   1.000  C 
  N10      1.0000 0.95980  0.12310  0.44171  Biso   1.000  N 
  C53      1.0000 0.86040  0.20710  0.44868  Biso   1.000  C 
  C54      1.0000 0.86640  0.33460  0.44511  Biso   1.000  C 
  H37      1.0000 0.94190  0.37430  0.43710  Biso   1.000  H 
  C55      1.0000 0.75150  0.39770  0.45435  Biso   1.000  C 
  H38      1.0000 0.75100  0.48200  0.45380  Biso   1.000  H 
  C56      1.0000 0.63960  0.33620  0.46428  Biso   1.000  C 
  H39      1.0000 0.56350  0.38050  0.46870  Biso   1.000  H 
  C57      1.0000 0.63510  0.21480  0.46788  Biso   1.000  C 
  H40      1.0000 0.55940  0.17510  0.47570  Biso   1.000  H 
  C58      1.0000 0.74630  0.15320  0.45957  Biso   1.000  C 
  C59      1.0000 0.98920  0.90300  0.44759  Biso   1.000  C 
  C60      1.0000 0.93560  0.78840  0.45030  Biso   1.000  C 
  H41      1.0000 0.84600  0.77710  0.45410  Biso   1.000  H 
  C61      1.0000 0.02470  0.68660  0.44680  Biso   1.000  C 
  C62      1.0000 0.15330  0.71190  0.44072  Biso   1.000  C 
  H42      1.0000 0.21420  0.64960  0.43820  Biso   1.000  H 
  C63      1.0000 0.19170  0.82890  0.43839  Biso   1.000  C 
  H43      1.0000 0.28020  0.84380  0.43380  Biso   1.000  H 
  N11      1.0000 0.11470  0.92240  0.44211  Biso   1.000  N 
  H44      1.0000 0.99500  0.60700  0.44860  Biso   1.000  H 
  C64      1.0000 0.29900  0.51850  0.17588  Biso   1.000  C 
  C65      1.0000 0.42410  0.45100  0.17262  Biso   1.000  C 
  C66      1.0000 0.42720  0.32600  0.17741  Biso   1.000  C 
  H45      1.0000 0.35260  0.28340  0.18450  Biso   1.000  H 
  C67      1.0000 0.54480  0.26700  0.17130  Biso   1.000  C 
  H46      1.0000 0.55060  0.18310  0.17360  Biso   1.000  H 
  C68      1.0000 0.65370  0.33470  0.16170  Biso   1.000  C 
  C69      1.0000 0.64120  0.45670  0.15637  Biso   1.000  C 
  H47      1.0000 0.71380  0.50070  0.14830  Biso   1.000  H 
  N12      1.0000 0.52850  0.51550  0.16231  Biso   1.000  N 
  H48      1.0000 0.73510  0.29720  0.15890  Biso   1.000  H 
  H49      1.0000 0.28580  0.14960  0.06180  Biso   1.000  H 
  C70      1.0000 0.92780  0.42420  0.09246  Biso   1.000  C 
  H50      1.0000 0.91140  0.50650  0.09580  Biso   1.000  H 
  C71      1.0000 0.99450  0.35940  0.12391  Biso   1.000  C 
  H51      1.0000 0.02210  0.39940  0.14800  Biso   1.000  H 
  H52      1.0000 0.00140  0.09890  0.07900  Biso   1.000  H 
  C72      1.0000 0.07590  0.95100  0.32738  Biso   1.000  C 
  C73      1.0000 0.07280  0.82600  0.32259  Biso   1.000  C 
  H53      1.0000 0.14740  0.78340  0.31550  Biso   1.000  H 
  C74      1.0000 0.95520  0.76700  0.32870  Biso   1.000  C 
  H54      1.0000 0.94940  0.68310  0.32640  Biso   1.000  H 
  C75      1.0000 0.84630  0.83470  0.33830  Biso   1.000  C 
  C76      1.0000 0.85880  0.95670  0.34363  Biso   1.000  C 
  H55      1.0000 0.78620  0.00070  0.35170  Biso   1.000  H 
  N13      1.0000 0.97150  0.01550  0.33769  Biso   1.000  N 
  H56      1.0000 0.76490  0.79720  0.34110  Biso   1.000  H 
  O4       1.0000 0.30620  0.26200  0.45189  Biso   1.000  O 
  N14      1.0000 0.27110  0.36900  0.44260  Biso   1.000  N 
  O5       1.0000 0.17740  0.38470  0.41610  Biso   1.000  O 
  O6       1.0000 0.33010  0.45590  0.45904  Biso   1.000  O 
