data_image0
_cell_length_a       9.7686
_cell_length_b       28.475
_cell_length_c       18.9966
_cell_angle_alpha    90
_cell_angle_beta     96.731
_cell_angle_gamma    90

_symmetry_space_group_name_H-M    "P 1"
_symmetry_int_tables_number       1

loop_
  _symmetry_equiv_pos_as_xyz
  'x, y, z'

loop_
  _atom_site_label
  _atom_site_occupancy
  _atom_site_fract_x
  _atom_site_fract_y
  _atom_site_fract_z
  _atom_site_thermal_displace_type
  _atom_site_B_iso_or_equiv
  _atom_site_type_symbol
  Cd1      1.0000 0.53239  0.67864  0.26478  Biso   1.000  Cd
  S1       1.0000 0.33598  0.67648  0.15569  Biso   1.000  S 
  C1       1.0000 0.46840  0.67670  0.10269  Biso   1.000  C 
  S2       1.0000 0.63832  0.67740  0.14172  Biso   1.000  S 
  N1       1.0000 0.43990  0.67592  0.03222  Biso   1.000  N 
  C2       1.0000 0.55030  0.67741  0.98490  Biso   1.000  C 
  H1       1.0000 0.51430  0.69270  0.93970  Biso   1.000  H 
  C3       1.0000 0.60320  0.62893  0.96960  Biso   1.000  C 
  H2       1.0000 0.52730  0.60990  0.94640  Biso   1.000  H 
  H3       1.0000 0.67580  0.63160  0.93830  Biso   1.000  H 
  H4       1.0000 0.64070  0.61390  0.01410  Biso   1.000  H 
  H5       1.0000 0.62780  0.69670  0.00740  Biso   1.000  H 
  C4       1.0000 0.29830  0.67266  0.99700  Biso   1.000  C 
  H6       1.0000 0.29890  0.65550  0.95170  Biso   1.000  H 
  C5       1.0000 0.23170  0.72059  0.98210  Biso   1.000  C 
  H7       1.0000 0.28570  0.73870  0.95120  Biso   1.000  H 
  H8       1.0000 0.13760  0.71640  0.95860  Biso   1.000  H 
  H9       1.0000 0.22880  0.73750  0.02680  Biso   1.000  H 
  H10      1.0000 0.24200  0.65430  0.02730  Biso   1.000  H 
  S3       1.0000 0.44318  0.68498  0.39151  Biso   1.000  S 
  C6       1.0000 0.61570  0.68821  0.42492  Biso   1.000  C 
  S4       1.0000 0.74155  0.68171  0.36858  Biso   1.000  S 
  N2       1.0000 0.65220  0.69480  0.49444  Biso   1.000  N 
  C7       1.0000 0.54940  0.70242  0.54430  Biso   1.000  C 
  H11      1.0000 0.46840  0.71870  0.51920  Biso   1.000  H 
  H12      1.0000 0.58970  0.72310  0.58320  Biso   1.000  H 
  C8       1.0000 0.50190  0.65691  0.57590  Biso   1.000  C 
  H13      1.0000 0.43400  0.66400  0.60850  Biso   1.000  H 
  H14      1.0000 0.45990  0.63650  0.53770  Biso   1.000  H 
  H15      1.0000 0.58130  0.64090  0.60170  Biso   1.000  H 
  C9       1.0000 0.79870  0.69614  0.52490  Biso   1.000  C 
  H16      1.0000 0.85140  0.67360  0.49900  Biso   1.000  H 
  H17      1.0000 0.80590  0.68600  0.57500  Biso   1.000  H 
  C10      1.0000 0.86300  0.74455  0.52130  Biso   1.000  C 
  H18      1.0000 0.85820  0.75460  0.47180  Biso   1.000  H 
  H19      1.0000 0.95960  0.74330  0.54220  Biso   1.000  H 
  H20      1.0000 0.81260  0.76700  0.54780  Biso   1.000  H 
  N3       1.0000 0.52610  0.59219  0.26872  Biso   1.000  N 
  C11      1.0000 0.51160  0.56878  0.32870  Biso   1.000  C 
  H21      1.0000 0.50640  0.58640  0.37080  Biso   1.000  H 
  C12      1.0000 0.50390  0.52011  0.33230  Biso   1.000  C 
  H22      1.0000 0.49300  0.50530  0.37620  Biso   1.000  H 
  C13      1.0000 0.51210  0.49296  0.27200  Biso   1.000  C 
  C14      1.0000 0.51240  0.43999  0.27630  Biso   1.000  C 
  C15      1.0000 0.42660  0.41517  0.21440  Biso   1.000  C 
  H23      1.0000 0.45890  0.42520  0.16920  Biso   1.000  H 
  C16      1.0000 0.43810  0.36253  0.22100  Biso   1.000  C 
  C17      1.0000 0.32930  0.33515  0.23930  Biso   1.000  C 
  H24      1.0000 0.24440  0.34940  0.24680  Biso   1.000  H 
  C18      1.0000 0.34600  0.28703  0.24630  Biso   1.000  C 
  H25      1.0000 0.27080  0.26900  0.25910  Biso   1.000  H 
  N4       1.0000 0.46230  0.26445  0.23605  Biso   1.000  N 
  C19      1.0000 0.56780  0.29091  0.21880  Biso   1.000  C 
  C20      1.0000 0.55980  0.33907  0.21110  Biso   1.000  C 
  H26      1.0000 0.63710  0.35620  0.19900  Biso   1.000  H 
  H27      1.0000 0.65160  0.27570  0.21160  Biso   1.000  H 
  Cd2      1.0000 0.46761  0.17864  0.23522  Biso   1.000  Cd
  S5       1.0000 0.25845  0.18171  0.13142  Biso   1.000  S 
  C21      1.0000 0.38430  0.18821  0.07508  Biso   1.000  C 
  S6       1.0000 0.55682  0.18498  0.10849  Biso   1.000  S 
  N5       1.0000 0.34780  0.19480  0.00556  Biso   1.000  N 
  C22      1.0000 0.45060  0.20242  0.95570  Biso   1.000  C 
  H28      1.0000 0.41030  0.22310  0.91680  Biso   1.000  H 
  C23      1.0000 0.49810  0.15691  0.92410  Biso   1.000  C 
  H29      1.0000 0.41870  0.14090  0.89830  Biso   1.000  H 
  H30      1.0000 0.54010  0.13650  0.96230  Biso   1.000  H 
  H31      1.0000 0.56600  0.16400  0.89150  Biso   1.000  H 
  H32      1.0000 0.53160  0.21870  0.98080  Biso   1.000  H 
  C24      1.0000 0.20130  0.19614  0.97510  Biso   1.000  C 
  H33      1.0000 0.19410  0.18600  0.92500  Biso   1.000  H 
  C25      1.0000 0.13700  0.24455  0.97870  Biso   1.000  C 
  H34      1.0000 0.04040  0.24330  0.95780  Biso   1.000  H 
  H35      1.0000 0.18740  0.26700  0.95220  Biso   1.000  H 
  H36      1.0000 0.14180  0.25460  0.02820  Biso   1.000  H 
  H37      1.0000 0.14860  0.17360  0.00100  Biso   1.000  H 
  N6       1.0000 0.47390  0.09219  0.23128  Biso   1.000  N 
  C26      1.0000 0.46710  0.06611  0.29000  Biso   1.000  C 
  C27      1.0000 0.47340  0.01772  0.29020  Biso   1.000  C 
  H38      1.0000 0.46780  0.00110  0.33310  Biso   1.000  H 
  C28      1.0000 0.48790  0.99296  0.22800  Biso   1.000  C 
  C29      1.0000 0.48760  0.93999  0.22370  Biso   1.000  C 
  H39      1.0000 0.39120  0.92880  0.22130  Biso   1.000  H 
  H40      1.0000 0.52310  0.93060  0.17900  Biso   1.000  H 
  C30      1.0000 0.57340  0.91517  0.28560  Biso   1.000  C 
  C31      1.0000 0.56190  0.86253  0.27900  Biso   1.000  C 
  C32      1.0000 0.44020  0.83907  0.28890  Biso   1.000  C 
  H41      1.0000 0.36290  0.85620  0.30100  Biso   1.000  H 
  C33      1.0000 0.43220  0.79091  0.28120  Biso   1.000  C 
  H42      1.0000 0.34840  0.77570  0.28840  Biso   1.000  H 
  N7       1.0000 0.53770  0.76445  0.26395  Biso   1.000  N 
  C34      1.0000 0.65400  0.78703  0.25370  Biso   1.000  C 
  H43      1.0000 0.72920  0.76900  0.24090  Biso   1.000  H 
  C35      1.0000 0.67070  0.83515  0.26070  Biso   1.000  C 
  H44      1.0000 0.75560  0.84940  0.25320  Biso   1.000  H 
  H45      1.0000 0.67120  0.92450  0.28670  Biso   1.000  H 
  H46      1.0000 0.54110  0.92520  0.33080  Biso   1.000  H 
  C36      1.0000 0.49610  0.02011  0.16770  Biso   1.000  C 
  H47      1.0000 0.50700  0.00530  0.12380  Biso   1.000  H 
  C37      1.0000 0.48840  0.06878  0.17130  Biso   1.000  C 
  H48      1.0000 0.49360  0.08640  0.12920  Biso   1.000  H 
  H49      1.0000 0.45750  0.08180  0.33320  Biso   1.000  H 
  S7       1.0000 0.36168  0.17740  0.35828  Biso   1.000  S 
  C38      1.0000 0.53160  0.17670  0.39731  Biso   1.000  C 
  S8       1.0000 0.66402  0.17648  0.34431  Biso   1.000  S 
  N8       1.0000 0.56010  0.17592  0.46778  Biso   1.000  N 
  C39      1.0000 0.44970  0.17741  0.51510  Biso   1.000  C 
  H50      1.0000 0.37220  0.19670  0.49260  Biso   1.000  H 
  C40      1.0000 0.39680  0.12893  0.53040  Biso   1.000  C 
  H51      1.0000 0.35930  0.11390  0.48590  Biso   1.000  H 
  H52      1.0000 0.32420  0.13160  0.56170  Biso   1.000  H 
  H53      1.0000 0.47270  0.10990  0.55360  Biso   1.000  H 
  H54      1.0000 0.48570  0.19270  0.56030  Biso   1.000  H 
  C41      1.0000 0.70170  0.17266  0.50300  Biso   1.000  C 
  H55      1.0000 0.75800  0.15430  0.47270  Biso   1.000  H 
  C42      1.0000 0.76830  0.22059  0.51790  Biso   1.000  C 
  H56      1.0000 0.77120  0.23750  0.47320  Biso   1.000  H 
  H57      1.0000 0.71430  0.23870  0.54880  Biso   1.000  H 
  H58      1.0000 0.86240  0.21640  0.54140  Biso   1.000  H 
  H59      1.0000 0.70110  0.15550  0.54830  Biso   1.000  H 
  H60      1.0000 0.32880  0.42450  0.21330  Biso   1.000  H 
  H61      1.0000 0.47690  0.43060  0.32100  Biso   1.000  H 
  H62      1.0000 0.60880  0.42880  0.27870  Biso   1.000  H 
  C43      1.0000 0.52660  0.51772  0.20980  Biso   1.000  C 
  H63      1.0000 0.53220  0.50110  0.16690  Biso   1.000  H 
  C44      1.0000 0.53290  0.56611  0.21000  Biso   1.000  C 
  H64      1.0000 0.54250  0.58180  0.16680  Biso   1.000  H 
