data_image0
_cell_length_a       9.5342
_cell_length_b       19.6392
_cell_length_c       7.019
_cell_angle_alpha    90
_cell_angle_beta     94.9956
_cell_angle_gamma    90

_symmetry_space_group_name_H-M    "P 1"
_symmetry_int_tables_number       1

loop_
  _symmetry_equiv_pos_as_xyz
  'x, y, z'

loop_
  _atom_site_label
  _atom_site_occupancy
  _atom_site_fract_x
  _atom_site_fract_y
  _atom_site_fract_z
  _atom_site_thermal_displace_type
  _atom_site_B_iso_or_equiv
  _atom_site_type_symbol
  Cu1      1.0000 0.01656  0.72670  0.71715  Biso   1.000  Cu
  N1       1.0000 0.13090  0.64034  0.78680  Biso   1.000  N 
  C1       1.0000 0.27580  0.63714  0.85800  Biso   1.000  C 
  C2       1.0000 0.36370  0.68946  0.81400  Biso   1.000  C 
  H1       1.0000 0.32630  0.72470  0.73680  Biso   1.000  H 
  N2       1.0000 0.50120  0.69206  0.87760  Biso   1.000  N 
  C3       1.0000 0.54840  0.63870  0.98850  Biso   1.000  C 
  C4       1.0000 0.46880  0.58537  0.03560  Biso   1.000  C 
  H2       1.0000 0.50830  0.55000  0.11030  Biso   1.000  H 
  C5       1.0000 0.33080  0.58438  0.97240  Biso   1.000  C 
  H3       1.0000 0.27340  0.54870  0.00540  Biso   1.000  H 
  H4       1.0000 0.64260  0.63880  0.03550  Biso   1.000  H 
  C6       1.0000 0.06070  0.58590  0.75210  Biso   1.000  C 
  H5       1.0000 0.10140  0.54350  0.77820  Biso   1.000  H 
  C7       1.0000 0.91370  0.59151  0.66980  Biso   1.000  C 
  N3       1.0000 0.87070  0.65537  0.63280  Biso   1.000  N 
  C8       1.0000 0.74100  0.66455  0.55380  Biso   1.000  C 
  H6       1.0000 0.70970  0.70870  0.52730  Biso   1.000  H 
  C9       1.0000 0.64980  0.61064  0.50910  Biso   1.000  C 
  H7       1.0000 0.55910  0.61860  0.45370  Biso   1.000  H 
  C10      1.0000 0.69520  0.54568  0.54780  Biso   1.000  C 
  H8       1.0000 0.63600  0.50880  0.51860  Biso   1.000  H 
  C11      1.0000 0.83030  0.53556  0.63080  Biso   1.000  C 
  H9       1.0000 0.86380  0.49190  0.65940  Biso   1.000  H 
  N4       1.0000 0.12190  0.71847  0.41340  Biso   1.000  N 
  N5       1.0000 0.19730  0.67045  0.39080  Biso   1.000  N 
  N6       1.0000 0.27220  0.62497  0.38030  Biso   1.000  N 
  Cu2      1.0000 0.01656  0.77330  0.21715  Biso   1.000  Cu
  N7       1.0000 0.13090  0.85966  0.28680  Biso   1.000  N 
  C12      1.0000 0.06070  0.91410  0.25210  Biso   1.000  C 
  H10      1.0000 0.10140  0.95650  0.27820  Biso   1.000  H 
  C13      1.0000 0.91370  0.90849  0.16980  Biso   1.000  C 
  N8       1.0000 0.87070  0.84463  0.13280  Biso   1.000  N 
  C14      1.0000 0.74100  0.83545  0.05380  Biso   1.000  C 
  C15      1.0000 0.64980  0.88936  0.00910  Biso   1.000  C 
  C16      1.0000 0.69520  0.95432  0.04780  Biso   1.000  C 
  H11      1.0000 0.63600  0.99120  0.01860  Biso   1.000  H 
  C17      1.0000 0.83030  0.96444  0.13080  Biso   1.000  C 
  H12      1.0000 0.86380  0.00810  0.15940  Biso   1.000  H 
  H13      1.0000 0.55910  0.88140  0.95370  Biso   1.000  H 
  H14      1.0000 0.70970  0.79130  0.02730  Biso   1.000  H 
  C18      1.0000 0.27580  0.86286  0.35800  Biso   1.000  C 
  C19      1.0000 0.33080  0.91562  0.47240  Biso   1.000  C 
  H15      1.0000 0.27340  0.95130  0.50540  Biso   1.000  H 
  C20      1.0000 0.46880  0.91463  0.53560  Biso   1.000  C 
  H16      1.0000 0.50830  0.95000  0.61030  Biso   1.000  H 
  C21      1.0000 0.54840  0.86130  0.48850  Biso   1.000  C 
  H17      1.0000 0.64260  0.86120  0.53550  Biso   1.000  H 
  N9       1.0000 0.50120  0.80794  0.37760  Biso   1.000  N 
  C22      1.0000 0.36370  0.81054  0.31400  Biso   1.000  C 
  H18      1.0000 0.32630  0.77530  0.23680  Biso   1.000  H 
  N10      1.0000 0.12190  0.78153  0.91340  Biso   1.000  N 
  N11      1.0000 0.19730  0.82955  0.89080  Biso   1.000  N 
  N12      1.0000 0.27220  0.87503  0.88030  Biso   1.000  N 
  N13      1.0000 0.90230  0.69968  0.09980  Biso   1.000  N 
  N14      1.0000 0.91730  0.64046  0.13460  Biso   1.000  N 
  N15      1.0000 0.92610  0.58284  0.15950  Biso   1.000  N 
  N16      1.0000 0.90230  0.80032  0.59980  Biso   1.000  N 
  N17      1.0000 0.91730  0.85954  0.63460  Biso   1.000  N 
  N18      1.0000 0.92610  0.91716  0.65950  Biso   1.000  N 
