data_image0
_cell_length_a       8.0978
_cell_length_b       9.7244
_cell_length_c       11.694
_cell_angle_alpha    89.26
_cell_angle_beta     89.12
_cell_angle_gamma    89.64

_symmetry_space_group_name_H-M    "P 1"
_symmetry_int_tables_number       1

loop_
  _symmetry_equiv_pos_as_xyz
  'x, y, z'

loop_
  _atom_site_label
  _atom_site_occupancy
  _atom_site_fract_x
  _atom_site_fract_y
  _atom_site_fract_z
  _atom_site_thermal_displace_type
  _atom_site_B_iso_or_equiv
  _atom_site_type_symbol
  Cu1      1.0000 0.00000  0.50000  0.50000  Biso   1.000  Cu
  O1       1.0000 0.00190  0.37280  0.63170  Biso   1.000  O 
  C1       1.0000 0.08200  0.26590  0.60030  Biso   1.000  C 
  C2       1.0000 0.10670  0.15130  0.68590  Biso   1.000  C 
  C3       1.0000 0.10380  0.16930  0.80460  Biso   1.000  C 
  C4       1.0000 0.08930  0.30420  0.86360  Biso   1.000  C 
  Cu2      1.0000 0.00000  0.50000  0.00000  Biso   1.000  Cu
  N1       1.0000 0.18450  0.45750  0.10550  Biso   1.000  N 
  C5       1.0000 0.16820  0.36700  0.18960  Biso   1.000  C 
  H1       1.0000 0.07150  0.31600  0.19390  Biso   1.000  H 
  C6       1.0000 0.28490  0.34330  0.27110  Biso   1.000  C 
  H2       1.0000 0.26660  0.27810  0.32870  Biso   1.000  H 
  C7       1.0000 0.42930  0.41670  0.26730  Biso   1.000  C 
  C8       1.0000 0.44780  0.50870  0.17900  Biso   1.000  C 
  H3       1.0000 0.54500  0.55870  0.17100  Biso   1.000  H 
  C9       1.0000 0.32270  0.52770  0.10170  Biso   1.000  C 
  H4       1.0000 0.33670  0.59350  0.04400  Biso   1.000  H 
  C10      1.0000 0.55170  0.39550  0.35790  Biso   1.000  C 
  N2       1.0000 0.70120  0.45750  0.35680  Biso   1.000  N 
  N3       1.0000 0.78410  0.42300  0.45460  Biso   1.000  N 
  C11      1.0000 0.68560  0.33920  0.51370  Biso   1.000  C 
  C12      1.0000 0.53880  0.31900  0.45710  Biso   1.000  C 
  H5       1.0000 0.45020  0.26490  0.48120  Biso   1.000  H 
  H6       1.0000 0.71160  0.29920  0.58390  Biso   1.000  H 
  O2       1.0000 0.00870  0.69140  0.05090  Biso   1.000  O 
  C13      1.0000 0.91070  0.69580  0.13640  Biso   1.000  C 
  O3       1.0000 0.82390  0.59480  0.16640  Biso   1.000  O 
  C14      1.0000 0.89620  0.83070  0.19540  Biso   1.000  C 
  C15      1.0000 0.88050  0.94670  0.12440  Biso   1.000  C 
  H7       1.0000 0.88420  0.93620  0.04550  Biso   1.000  H 
  C16      1.0000 0.86000  0.07540  0.16880  Biso   1.000  C 
  C17      1.0000 0.85590  0.09290  0.28470  Biso   1.000  C 
  H8       1.0000 0.84240  0.18030  0.31500  Biso   1.000  H 
  C18      1.0000 0.87190  0.98000  0.35610  Biso   1.000  C 
  H9       1.0000 0.86830  0.99240  0.43490  Biso   1.000  H 
  C19      1.0000 0.89330  0.84870  0.31410  Biso   1.000  C 
  C20      1.0000 0.91800  0.73410  0.39970  Biso   1.000  C 
  O4       1.0000 0.99810  0.62720  0.36830  Biso   1.000  O 
  O5       1.0000 0.86550  0.74850  0.49810  Biso   1.000  O 
  H10      1.0000 0.84880  0.15110  0.12000  Biso   1.000  H 
  O6       1.0000 0.17610  0.40520  0.83360  Biso   1.000  O 
  O7       1.0000 0.99130  0.30860  0.94910  Biso   1.000  O 
  N4       1.0000 0.81550  0.54250  0.89450  Biso   1.000  N 
  C21      1.0000 0.67730  0.47230  0.89830  Biso   1.000  C 
  H11      1.0000 0.66330  0.40650  0.95600  Biso   1.000  H 
  C22      1.0000 0.55220  0.49130  0.82100  Biso   1.000  C 
  H12      1.0000 0.45500  0.44130  0.82900  Biso   1.000  H 
  C23      1.0000 0.57070  0.58330  0.73270  Biso   1.000  C 
  C24      1.0000 0.71510  0.65670  0.72890  Biso   1.000  C 
  H13      1.0000 0.73340  0.72190  0.67130  Biso   1.000  H 
  C25      1.0000 0.83180  0.63300  0.81040  Biso   1.000  C 
  H14      1.0000 0.92850  0.68400  0.80610  Biso   1.000  H 
  C26      1.0000 0.44830  0.60450  0.64210  Biso   1.000  C 
  N5       1.0000 0.29880  0.54250  0.64320  Biso   1.000  N 
  N6       1.0000 0.21590  0.57700  0.54540  Biso   1.000  N 
  C27      1.0000 0.31440  0.66080  0.48630  Biso   1.000  C 
  H15      1.0000 0.28840  0.70080  0.41610  Biso   1.000  H 
  C28      1.0000 0.46120  0.68100  0.54290  Biso   1.000  C 
  H16      1.0000 0.54980  0.73510  0.51880  Biso   1.000  H 
  C29      1.0000 0.11950  0.05330  0.87560  Biso   1.000  C 
  H17      1.0000 0.11580  0.06380  0.95450  Biso   1.000  H 
  C30      1.0000 0.14000  0.92460  0.83120  Biso   1.000  C 
  C31      1.0000 0.14410  0.90710  0.71530  Biso   1.000  C 
  H18      1.0000 0.15760  0.81970  0.68500  Biso   1.000  H 
  C32      1.0000 0.12810  0.02000  0.64390  Biso   1.000  C 
  H19      1.0000 0.13170  0.00760  0.56510  Biso   1.000  H 
  H20      1.0000 0.15120  0.84890  0.88000  Biso   1.000  H 
  O8       1.0000 0.13450  0.25150  0.50190  Biso   1.000  O 
