data_image0
_cell_length_a       28.848
_cell_length_b       6.1751
_cell_length_c       17.144
_cell_angle_alpha    90
_cell_angle_beta     98.838
_cell_angle_gamma    90

_symmetry_space_group_name_H-M    "P 1"
_symmetry_int_tables_number       1

loop_
  _symmetry_equiv_pos_as_xyz
  'x, y, z'

loop_
  _atom_site_label
  _atom_site_occupancy
  _atom_site_fract_x
  _atom_site_fract_y
  _atom_site_fract_z
  _atom_site_thermal_displace_type
  _atom_site_B_iso_or_equiv
  _atom_site_type_symbol
  Zn1      1.0000 0.00000  0.58053  0.25000  Biso   1.000  Zn
  O1       1.0000 0.94948  0.78150  0.21438  Biso   1.000  O 
  C1       1.0000 0.90924  0.68790  0.19990  Biso   1.000  C 
  C2       1.0000 0.87053  0.82560  0.15540  Biso   1.000  C 
  C3       1.0000 0.82539  0.73800  0.13520  Biso   1.000  C 
  H1       1.0000 0.81880  0.59560  0.15140  Biso   1.000  H 
  C4       1.0000 0.79075  0.86100  0.09160  Biso   1.000  C 
  H2       1.0000 0.76010  0.80270  0.07820  Biso   1.000  H 
  C5       1.0000 0.80019  0.07140  0.06670  Biso   1.000  C 
  C6       1.0000 0.76453  0.19600  0.01970  Biso   1.000  C 
  C7       1.0000 0.73547  0.30400  0.98030  Biso   1.000  C 
  C8       1.0000 0.69981  0.42860  0.93330  Biso   1.000  C 
  C9       1.0000 0.65499  0.34450  0.91290  Biso   1.000  C 
  H3       1.0000 0.64800  0.20290  0.92940  Biso   1.000  H 
  C10      1.0000 0.62019  0.46780  0.86820  Biso   1.000  C 
  H4       1.0000 0.58970  0.40870  0.85380  Biso   1.000  H 
  C11      1.0000 0.62947  0.67440  0.84460  Biso   1.000  C 
  C12      1.0000 0.67461  0.76200  0.86480  Biso   1.000  C 
  H5       1.0000 0.68120  0.90440  0.84860  Biso   1.000  H 
  C13      1.0000 0.70925  0.63900  0.90840  Biso   1.000  C 
  H6       1.0000 0.73990  0.69730  0.92180  Biso   1.000  H 
  C14      1.0000 0.59076  0.81210  0.80010  Biso   1.000  C 
  O2       1.0000 0.59814  0.00080  0.78341  Biso   1.000  O 
  O3       1.0000 0.55052  0.71850  0.78562  Biso   1.000  O 
  Zn2      1.0000 0.50000  0.91947  0.75000  Biso   1.000  Zn
  O4       1.0000 0.44948  0.71850  0.71438  Biso   1.000  O 
  C15      1.0000 0.40924  0.81210  0.69990  Biso   1.000  C 
  C16      1.0000 0.37053  0.67440  0.65540  Biso   1.000  C 
  C17      1.0000 0.32539  0.76200  0.63520  Biso   1.000  C 
  H7       1.0000 0.31880  0.90440  0.65140  Biso   1.000  H 
  C18      1.0000 0.29075  0.63900  0.59160  Biso   1.000  C 
  H8       1.0000 0.26010  0.69730  0.57820  Biso   1.000  H 
  C19      1.0000 0.30019  0.42860  0.56670  Biso   1.000  C 
  C20      1.0000 0.26453  0.30400  0.51970  Biso   1.000  C 
  C21      1.0000 0.23547  0.19600  0.48030  Biso   1.000  C 
  C22      1.0000 0.19981  0.07140  0.43330  Biso   1.000  C 
  C23      1.0000 0.15499  0.15550  0.41290  Biso   1.000  C 
  H9       1.0000 0.14800  0.29710  0.42940  Biso   1.000  H 
  C24      1.0000 0.12019  0.03220  0.36820  Biso   1.000  C 
  H10      1.0000 0.08970  0.09130  0.35380  Biso   1.000  H 
  C25      1.0000 0.12947  0.82560  0.34460  Biso   1.000  C 
  C26      1.0000 0.17461  0.73800  0.36480  Biso   1.000  C 
  H11      1.0000 0.18120  0.59560  0.34860  Biso   1.000  H 
  C27      1.0000 0.20925  0.86100  0.40840  Biso   1.000  C 
  H12      1.0000 0.23990  0.80270  0.42180  Biso   1.000  H 
  C28      1.0000 0.09076  0.68790  0.30010  Biso   1.000  C 
  O5       1.0000 0.05052  0.78150  0.28562  Biso   1.000  O 
  O6       1.0000 0.09814  0.49920  0.28341  Biso   1.000  O 
  C29      1.0000 0.34501  0.34450  0.58710  Biso   1.000  C 
  H13      1.0000 0.35200  0.20290  0.57060  Biso   1.000  H 
  C30      1.0000 0.37981  0.46780  0.63180  Biso   1.000  C 
  H14      1.0000 0.41030  0.40870  0.64620  Biso   1.000  H 
  O7       1.0000 0.40186  0.00080  0.71659  Biso   1.000  O 
  N1       1.0000 0.50242  0.12310  0.65670  Biso   1.000  N 
  C31      1.0000 0.47371  0.09580  0.58830  Biso   1.000  C 
  C32      1.0000 0.47158  0.23860  0.52640  Biso   1.000  C 
  H15      1.0000 0.45050  0.21240  0.47910  Biso   1.000  H 
  C33      1.0000 0.50009  0.42120  0.53290  Biso   1.000  C 
  C34      1.0000 0.52970  0.44920  0.60530  Biso   1.000  C 
  H16      1.0000 0.54950  0.57250  0.61340  Biso   1.000  H 
  C35      1.0000 0.53001  0.30040  0.66350  Biso   1.000  C 
  H17      1.0000 0.55070  0.32220  0.71150  Biso   1.000  H 
  C36      1.0000 0.49991  0.57880  0.46710  Biso   1.000  C 
  C37      1.0000 0.52842  0.76140  0.47360  Biso   1.000  C 
  H18      1.0000 0.54950  0.78760  0.52090  Biso   1.000  H 
  C38      1.0000 0.52629  0.90420  0.41170  Biso   1.000  C 
  H19      1.0000 0.54610  0.02790  0.41770  Biso   1.000  H 
  N2       1.0000 0.49758  0.87690  0.34330  Biso   1.000  N 
  C39      1.0000 0.46999  0.69960  0.33650  Biso   1.000  C 
  H20      1.0000 0.44930  0.67780  0.28850  Biso   1.000  H 
  C40      1.0000 0.47030  0.55080  0.39470  Biso   1.000  C 
  H21      1.0000 0.45050  0.42750  0.38660  Biso   1.000  H 
  Zn3      1.0000 0.50000  0.08053  0.25000  Biso   1.000  Zn
  O8       1.0000 0.44948  0.28150  0.21438  Biso   1.000  O 
  C41      1.0000 0.40924  0.18790  0.19990  Biso   1.000  C 
  C42      1.0000 0.37053  0.32560  0.15540  Biso   1.000  C 
  C43      1.0000 0.32539  0.23800  0.13520  Biso   1.000  C 
  H22      1.0000 0.31880  0.09560  0.15140  Biso   1.000  H 
  C44      1.0000 0.29075  0.36100  0.09160  Biso   1.000  C 
  C45      1.0000 0.30019  0.57140  0.06670  Biso   1.000  C 
  C46      1.0000 0.26453  0.69600  0.01970  Biso   1.000  C 
  C47      1.0000 0.23547  0.80400  0.98030  Biso   1.000  C 
  C48      1.0000 0.19981  0.92860  0.93330  Biso   1.000  C 
  C49      1.0000 0.20925  0.13900  0.90840  Biso   1.000  C 
  H23      1.0000 0.23990  0.19730  0.92180  Biso   1.000  H 
  C50      1.0000 0.17461  0.26200  0.86480  Biso   1.000  C 
  H24      1.0000 0.18120  0.40440  0.84860  Biso   1.000  H 
  C51      1.0000 0.12947  0.17440  0.84460  Biso   1.000  C 
  C52      1.0000 0.09076  0.31210  0.80010  Biso   1.000  C 
  O9       1.0000 0.05052  0.21850  0.78562  Biso   1.000  O 
  Zn4      1.0000 0.00000  0.41947  0.75000  Biso   1.000  Zn
  N3       1.0000 0.00242  0.62310  0.65670  Biso   1.000  N 
  C53      1.0000 0.03001  0.80040  0.66350  Biso   1.000  C 
  C54      1.0000 0.02970  0.94920  0.60530  Biso   1.000  C 
  C55      1.0000 0.00009  0.92120  0.53290  Biso   1.000  C 
  C56      1.0000 0.99991  0.07880  0.46710  Biso   1.000  C 
  C57      1.0000 0.02842  0.26140  0.47360  Biso   1.000  C 
  H25      1.0000 0.04950  0.28760  0.52090  Biso   1.000  H 
  C58      1.0000 0.02629  0.40420  0.41170  Biso   1.000  C 
  H26      1.0000 0.04610  0.52790  0.41770  Biso   1.000  H 
  N4       1.0000 0.99758  0.37690  0.34330  Biso   1.000  N 
  C59      1.0000 0.96999  0.19960  0.33650  Biso   1.000  C 
  H27      1.0000 0.94930  0.17780  0.28850  Biso   1.000  H 
  C60      1.0000 0.97030  0.05080  0.39470  Biso   1.000  C 
  H28      1.0000 0.95050  0.92750  0.38660  Biso   1.000  H 
  C61      1.0000 0.97158  0.73860  0.52640  Biso   1.000  C 
  H29      1.0000 0.95050  0.71240  0.47910  Biso   1.000  H 
  C62      1.0000 0.97371  0.59580  0.58830  Biso   1.000  C 
  H30      1.0000 0.95390  0.47210  0.58230  Biso   1.000  H 
  H31      1.0000 0.04950  0.07250  0.61340  Biso   1.000  H 
  H32      1.0000 0.05070  0.82220  0.71150  Biso   1.000  H 
  O10      1.0000 0.94948  0.21850  0.71438  Biso   1.000  O 
  C63      1.0000 0.90924  0.31210  0.69990  Biso   1.000  C 
  C64      1.0000 0.87053  0.17440  0.65540  Biso   1.000  C 
  C65      1.0000 0.82539  0.26200  0.63520  Biso   1.000  C 
  C66      1.0000 0.79075  0.13900  0.59160  Biso   1.000  C 
  H33      1.0000 0.76010  0.19730  0.57820  Biso   1.000  H 
  C67      1.0000 0.80019  0.92860  0.56670  Biso   1.000  C 
  C68      1.0000 0.76453  0.80400  0.51970  Biso   1.000  C 
  C69      1.0000 0.73547  0.69600  0.48030  Biso   1.000  C 
  C70      1.0000 0.69981  0.57140  0.43330  Biso   1.000  C 
  C71      1.0000 0.65499  0.65550  0.41290  Biso   1.000  C 
  H34      1.0000 0.64800  0.79710  0.42940  Biso   1.000  H 
  C72      1.0000 0.62019  0.53220  0.36820  Biso   1.000  C 
  H35      1.0000 0.58970  0.59130  0.35380  Biso   1.000  H 
  C73      1.0000 0.62947  0.32560  0.34460  Biso   1.000  C 
  C74      1.0000 0.67461  0.23800  0.36480  Biso   1.000  C 
  H36      1.0000 0.68120  0.09560  0.34860  Biso   1.000  H 
  C75      1.0000 0.70925  0.36100  0.40840  Biso   1.000  C 
  H37      1.0000 0.73990  0.30270  0.42180  Biso   1.000  H 
  C76      1.0000 0.59076  0.18790  0.30010  Biso   1.000  C 
  O11      1.0000 0.55052  0.28150  0.28562  Biso   1.000  O 
  O12      1.0000 0.59814  0.99920  0.28341  Biso   1.000  O 
  C77      1.0000 0.84501  0.84450  0.58710  Biso   1.000  C 
  H38      1.0000 0.85200  0.70290  0.57060  Biso   1.000  H 
  C78      1.0000 0.87981  0.96780  0.63180  Biso   1.000  C 
  H39      1.0000 0.91030  0.90870  0.64620  Biso   1.000  H 
  H40      1.0000 0.81880  0.40440  0.65140  Biso   1.000  H 
  O13      1.0000 0.90186  0.50080  0.71659  Biso   1.000  O 
  N5       1.0000 0.99758  0.62310  0.84330  Biso   1.000  N 
  C79      1.0000 0.96999  0.80040  0.83650  Biso   1.000  C 
  C80      1.0000 0.97030  0.94920  0.89470  Biso   1.000  C 
  C81      1.0000 0.99991  0.92120  0.96710  Biso   1.000  C 
  C82      1.0000 0.02842  0.73860  0.97360  Biso   1.000  C 
  H41      1.0000 0.04950  0.71240  0.02090  Biso   1.000  H 
  C83      1.0000 0.02629  0.59580  0.91170  Biso   1.000  C 
  H42      1.0000 0.04610  0.47210  0.91770  Biso   1.000  H 
  C84      1.0000 0.00009  0.07880  0.03290  Biso   1.000  C 
  C85      1.0000 0.97158  0.26140  0.02640  Biso   1.000  C 
  C86      1.0000 0.97371  0.40420  0.08830  Biso   1.000  C 
  H43      1.0000 0.95390  0.52790  0.08230  Biso   1.000  H 
  N6       1.0000 0.00242  0.37690  0.15670  Biso   1.000  N 
  C87      1.0000 0.03001  0.19960  0.16350  Biso   1.000  C 
  C88      1.0000 0.02970  0.05080  0.10530  Biso   1.000  C 
  H44      1.0000 0.04950  0.92750  0.11340  Biso   1.000  H 
  H45      1.0000 0.05070  0.17780  0.21150  Biso   1.000  H 
  H46      1.0000 0.95050  0.28760  0.97910  Biso   1.000  H 
  H47      1.0000 0.95050  0.07250  0.88660  Biso   1.000  H 
  H48      1.0000 0.94930  0.82220  0.78850  Biso   1.000  H 
  O14      1.0000 0.09814  0.50080  0.78341  Biso   1.000  O 
  C89      1.0000 0.12019  0.96780  0.86820  Biso   1.000  C 
  H49      1.0000 0.08970  0.90870  0.85380  Biso   1.000  H 
  C90      1.0000 0.15499  0.84450  0.91290  Biso   1.000  C 
  H50      1.0000 0.14800  0.70290  0.92940  Biso   1.000  H 
  C91      1.0000 0.34501  0.65550  0.08710  Biso   1.000  C 
  H51      1.0000 0.35200  0.79710  0.07060  Biso   1.000  H 
  C92      1.0000 0.37981  0.53220  0.13180  Biso   1.000  C 
  H52      1.0000 0.41030  0.59130  0.14620  Biso   1.000  H 
  H53      1.0000 0.26010  0.30270  0.07820  Biso   1.000  H 
  O15      1.0000 0.40186  0.99920  0.21659  Biso   1.000  O 
  N7       1.0000 0.50242  0.87690  0.15670  Biso   1.000  N 
  C93      1.0000 0.47371  0.90420  0.08830  Biso   1.000  C 
  C94      1.0000 0.47158  0.76140  0.02640  Biso   1.000  C 
  C95      1.0000 0.50009  0.57880  0.03290  Biso   1.000  C 
  C96      1.0000 0.52970  0.55080  0.10530  Biso   1.000  C 
  H54      1.0000 0.54950  0.42750  0.11340  Biso   1.000  H 
  C97      1.0000 0.53001  0.69960  0.16350  Biso   1.000  C 
  H55      1.0000 0.55070  0.67780  0.21150  Biso   1.000  H 
  C98      1.0000 0.49991  0.42120  0.96710  Biso   1.000  C 
  C99      1.0000 0.52842  0.23860  0.97360  Biso   1.000  C 
  H56      1.0000 0.54950  0.21240  0.02090  Biso   1.000  H 
  C100     1.0000 0.52629  0.09580  0.91170  Biso   1.000  C 
  N8       1.0000 0.49758  0.12310  0.84330  Biso   1.000  N 
  C101     1.0000 0.46999  0.30040  0.83650  Biso   1.000  C 
  H57      1.0000 0.44930  0.32220  0.78850  Biso   1.000  H 
  C102     1.0000 0.47030  0.44920  0.89470  Biso   1.000  C 
  H58      1.0000 0.45050  0.57250  0.88660  Biso   1.000  H 
  H59      1.0000 0.54610  0.97210  0.91770  Biso   1.000  H 
  H60      1.0000 0.45050  0.78760  0.97910  Biso   1.000  H 
  H61      1.0000 0.45390  0.02790  0.08230  Biso   1.000  H 
  H62      1.0000 0.45390  0.97210  0.58230  Biso   1.000  H 
  C103     1.0000 0.84501  0.15550  0.08710  Biso   1.000  C 
  H63      1.0000 0.85200  0.29710  0.07060  Biso   1.000  H 
  C104     1.0000 0.87981  0.03220  0.13180  Biso   1.000  C 
  H64      1.0000 0.91030  0.09130  0.14620  Biso   1.000  H 
  O16      1.0000 0.90186  0.49920  0.21659  Biso   1.000  O 
