data_image0
_cell_length_a       9.3845
_cell_length_b       10.7943
_cell_length_c       10.8305
_cell_angle_alpha    91.633
_cell_angle_beta     106.243
_cell_angle_gamma    112.005

_symmetry_space_group_name_H-M    "P 1"
_symmetry_int_tables_number       1

loop_
  _symmetry_equiv_pos_as_xyz
  'x, y, z'

loop_
  _atom_site_label
  _atom_site_occupancy
  _atom_site_fract_x
  _atom_site_fract_y
  _atom_site_fract_z
  _atom_site_thermal_displace_type
  _atom_site_B_iso_or_equiv
  _atom_site_type_symbol
  Cu1      1.0000 0.83880  0.94742  0.96095  Biso   1.000  Cu
  O1       1.0000 0.58530  0.86340  0.87960  Biso   1.000  O 
  C1       1.0000 0.51300  0.76340  0.79060  Biso   1.000  C 
  H1       1.0000 0.57420  0.71650  0.77180  Biso   1.000  H 
  N1       1.0000 0.36310  0.71980  0.72330  Biso   1.000  N 
  C2       1.0000 0.29180  0.60840  0.62010  Biso   1.000  C 
  H2       1.0000 0.25530  0.63900  0.53730  Biso   1.000  H 
  H3       1.0000 0.37210  0.57210  0.61640  Biso   1.000  H 
  H4       1.0000 0.19910  0.53770  0.63580  Biso   1.000  H 
  C3       1.0000 0.26210  0.78290  0.74250  Biso   1.000  C 
  H5       1.0000 0.16890  0.71670  0.76170  Biso   1.000  H 
  H6       1.0000 0.22420  0.81890  0.66360  Biso   1.000  H 
  H7       1.0000 0.32310  0.85690  0.81560  Biso   1.000  H 
  O2       1.0000 0.85680  0.77250  0.96690  Biso   1.000  O 
  C4       1.0000 0.99290  0.76730  0.99830  Biso   1.000  C 
  C5       1.0000 0.99280  0.62600  0.99980  Biso   1.000  C 
  C6       1.0000 0.95500  0.54720  0.88450  Biso   1.000  C 
  H8       1.0000 0.92240  0.57810  0.80440  Biso   1.000  H 
  C7       1.0000 0.96450  0.42290  0.88500  Biso   1.000  C 
  C8       1.0000 0.00720  0.37400  0.00020  Biso   1.000  C 
  C9       1.0000 0.04500  0.45280  0.11550  Biso   1.000  C 
  H9       1.0000 0.07760  0.42190  0.19560  Biso   1.000  H 
  C10      1.0000 0.03550  0.57710  0.11500  Biso   1.000  C 
  Cl1      1.0000 0.07690  0.67380  0.26280  Biso   1.000  Cl
  C11      1.0000 0.00710  0.23270  0.00170  Biso   1.000  C 
  O3       1.0000 0.87380  0.13900  0.97090  Biso   1.000  O 
  O4       1.0000 0.14320  0.22750  0.03310  Biso   1.000  O 
  Cu2      1.0000 0.16120  0.05258  0.03905  Biso   1.000  Cu
  O5       1.0000 0.13100  0.04930  0.21140  Biso   1.000  O 
  C12      1.0000 0.99770  0.00560  0.23130  Biso   1.000  C 
  C13      1.0000 0.99800  0.00690  0.36980  Biso   1.000  C 
  C14      1.0000 0.08750  0.12200  0.46540  Biso   1.000  C 
  C15      1.0000 0.08950  0.11450  0.59310  Biso   1.000  C 
  H10      1.0000 0.15120  0.19290  0.65670  Biso   1.000  H 
  C16      1.0000 0.00200  0.99310  0.63020  Biso   1.000  C 
  C17      1.0000 0.00230  0.99440  0.76870  Biso   1.000  C 
  O6       1.0000 0.14020  0.04210  0.85370  Biso   1.000  O 
  O7       1.0000 0.86900  0.95070  0.78860  Biso   1.000  O 
  C18      1.0000 0.91250  0.87800  0.53460  Biso   1.000  C 
  C19      1.0000 0.91050  0.88550  0.40690  Biso   1.000  C 
  H11      1.0000 0.84880  0.80710  0.34330  Biso   1.000  H 
  Cl2      1.0000 0.80500  0.72520  0.57560  Biso   1.000  Cl
  Cl3      1.0000 0.19500  0.27480  0.42440  Biso   1.000  Cl
  O8       1.0000 0.85980  0.95790  0.14630  Biso   1.000  O 
  O9       1.0000 0.41470  0.13660  0.12040  Biso   1.000  O 
  C20      1.0000 0.48700  0.23660  0.20940  Biso   1.000  C 
  H12      1.0000 0.42580  0.28350  0.22820  Biso   1.000  H 
  N2       1.0000 0.63690  0.28020  0.27670  Biso   1.000  N 
  C21      1.0000 0.73790  0.21710  0.25750  Biso   1.000  C 
  H13      1.0000 0.83110  0.28330  0.23830  Biso   1.000  H 
  H14      1.0000 0.77580  0.18110  0.33640  Biso   1.000  H 
  H15      1.0000 0.67690  0.14310  0.18440  Biso   1.000  H 
  C22      1.0000 0.70820  0.39160  0.37990  Biso   1.000  C 
  H16      1.0000 0.62790  0.42790  0.38360  Biso   1.000  H 
  H17      1.0000 0.80090  0.46230  0.36420  Biso   1.000  H 
  H18      1.0000 0.74470  0.36100  0.46270  Biso   1.000  H 
  O10      1.0000 0.12620  0.86100  0.02910  Biso   1.000  O 
  Cl4      1.0000 0.92310  0.32620  0.73720  Biso   1.000  Cl
