data_image0
_cell_length_a       10.565
_cell_length_b       12.13
_cell_length_c       17.726
_cell_angle_alpha    90
_cell_angle_beta     103.72
_cell_angle_gamma    90

_symmetry_space_group_name_H-M    "P 1"
_symmetry_int_tables_number       1

loop_
  _symmetry_equiv_pos_as_xyz
  'x, y, z'

loop_
  _atom_site_label
  _atom_site_occupancy
  _atom_site_fract_x
  _atom_site_fract_y
  _atom_site_fract_z
  _atom_site_thermal_displace_type
  _atom_site_B_iso_or_equiv
  _atom_site_type_symbol
  Cu1      1.0000 0.00000  0.00000  0.00000  Biso   1.000  Cu
  N1       1.0000 0.06230  0.04020  0.11500  Biso   1.000  N 
  C1       1.0000 0.04970  0.13830  0.14310  Biso   1.000  C 
  H1       1.0000 0.01180  0.19810  0.11340  Biso   1.000  H 
  N2       1.0000 0.09830  0.14150  0.22020  Biso   1.000  N 
  C2       1.0000 0.14170  0.04070  0.24180  Biso   1.000  C 
  H2       1.0000 0.18100  0.01800  0.29200  Biso   1.000  H 
  C3       1.0000 0.11790  0.97730  0.17670  Biso   1.000  C 
  H3       1.0000 0.13690  0.90260  0.17500  Biso   1.000  H 
  C4       1.0000 0.10260  0.23860  0.27090  Biso   1.000  C 
  H4       1.0000 0.03950  0.29260  0.24480  Biso   1.000  H 
  H5       1.0000 0.07850  0.21650  0.31820  Biso   1.000  H 
  C5       1.0000 0.23680  0.29110  0.29160  Biso   1.000  C 
  C6       1.0000 0.26630  0.38260  0.25210  Biso   1.000  C 
  H6       1.0000 0.20330  0.41040  0.21060  Biso   1.000  H 
  C7       1.0000 0.38600  0.43370  0.27250  Biso   1.000  C 
  C8       1.0000 0.48210  0.38940  0.33390  Biso   1.000  C 
  H7       1.0000 0.56390  0.42230  0.34800  Biso   1.000  H 
  C9       1.0000 0.45550  0.29680  0.37350  Biso   1.000  C 
  C10      1.0000 0.55910  0.24660  0.43970  Biso   1.000  C 
  H8       1.0000 0.51690  0.21400  0.47740  Biso   1.000  H 
  N3       1.0000 0.65300  0.32760  0.47820  Biso   1.000  N 
  C11      1.0000 0.77120  0.34460  0.46530  Biso   1.000  C 
  H9       1.0000 0.80960  0.29940  0.43470  Biso   1.000  H 
  N4       1.0000 0.82670  0.43350  0.50160  Biso   1.000  N 
  Cu2      1.0000 0.00000  0.50000  0.50000  Biso   1.000  Cu
  O1       1.0000 0.06130  0.31740  0.45810  Biso   1.000  O 
  C12      1.0000 0.11930  0.24740  0.47900  Biso   1.000  C 
  O2       1.0000 0.11660  0.15380  0.46050  Biso   1.000  O 
  C13      1.0000 0.25790  0.26720  0.54630  Biso   1.000  C 
  H10      1.0000 0.33070  0.25070  0.52460  Biso   1.000  H 
  H11      1.0000 0.25960  0.21960  0.58990  Biso   1.000  H 
  H12      1.0000 0.26290  0.34260  0.56320  Biso   1.000  H 
  N5       1.0000 0.17330  0.56650  0.49840  Biso   1.000  N 
  C14      1.0000 0.22880  0.65540  0.53470  Biso   1.000  C 
  H13      1.0000 0.19040  0.70060  0.56530  Biso   1.000  H 
  N6       1.0000 0.34700  0.67240  0.52180  Biso   1.000  N 
  C15      1.0000 0.36760  0.58990  0.47310  Biso   1.000  C 
  H14      1.0000 0.44150  0.57980  0.45400  Biso   1.000  H 
  C16      1.0000 0.25960  0.52640  0.45830  Biso   1.000  C 
  H15      1.0000 0.24590  0.46500  0.42600  Biso   1.000  H 
  C17      1.0000 0.44090  0.75340  0.56030  Biso   1.000  C 
  H16      1.0000 0.39590  0.81170  0.58080  Biso   1.000  H 
  H17      1.0000 0.48310  0.78600  0.52260  Biso   1.000  H 
  C18      1.0000 0.54450  0.70320  0.62650  Biso   1.000  C 
  C19      1.0000 0.51790  0.61060  0.66610  Biso   1.000  C 
  H18      1.0000 0.43610  0.57770  0.65200  Biso   1.000  H 
  C20      1.0000 0.61400  0.56630  0.72750  Biso   1.000  C 
  C21      1.0000 0.58420  0.46650  0.76940  Biso   1.000  C 
  H19      1.0000 0.49330  0.46800  0.77140  Biso   1.000  H 
  N7       1.0000 0.61030  0.36660  0.73140  Biso   1.000  N 
  C22      1.0000 0.73710  0.32830  0.73030  Biso   1.000  C 
  C23      1.0000 0.72580  0.24350  0.68970  Biso   1.000  C 
  H20      1.0000 0.79500  0.20470  0.67850  Biso   1.000  H 
  N8       1.0000 0.59410  0.21440  0.66320  Biso   1.000  N 
  C24      1.0000 0.52030  0.29890  0.69040  Biso   1.000  C 
  H21      1.0000 0.43020  0.30500  0.68150  Biso   1.000  H 
  H22      1.0000 0.81520  0.36110  0.75560  Biso   1.000  H 
  H23      1.0000 0.63680  0.46750  0.82230  Biso   1.000  H 
  C25      1.0000 0.73370  0.61740  0.74790  Biso   1.000  C 
  H24      1.0000 0.79670  0.58960  0.78940  Biso   1.000  H 
  C26      1.0000 0.76320  0.70890  0.70840  Biso   1.000  C 
  C27      1.0000 0.66790  0.75090  0.64730  Biso   1.000  C 
  H25      1.0000 0.68660  0.81180  0.62000  Biso   1.000  H 
  C28      1.0000 0.89740  0.76140  0.72910  Biso   1.000  C 
  H26      1.0000 0.92150  0.78350  0.68180  Biso   1.000  H 
  H27      1.0000 0.96050  0.70740  0.75520  Biso   1.000  H 
  N9       1.0000 0.90170  0.85850  0.77980  Biso   1.000  N 
  C29      1.0000 0.85830  0.95930  0.75820  Biso   1.000  C 
  H28      1.0000 0.81900  0.98200  0.70800  Biso   1.000  H 
  C30      1.0000 0.88210  0.02270  0.82330  Biso   1.000  C 
  H29      1.0000 0.86310  0.09740  0.82500  Biso   1.000  H 
  N10      1.0000 0.93770  0.95980  0.88500  Biso   1.000  N 
  C31      1.0000 0.95030  0.86170  0.85690  Biso   1.000  C 
  H30      1.0000 0.98820  0.80190  0.88660  Biso   1.000  H 
  N11      1.0000 0.06230  0.45980  0.61500  Biso   1.000  N 
  C32      1.0000 0.04970  0.36170  0.64310  Biso   1.000  C 
  H31      1.0000 0.01180  0.30190  0.61340  Biso   1.000  H 
  N12      1.0000 0.09830  0.35850  0.72020  Biso   1.000  N 
  C33      1.0000 0.14170  0.45930  0.74180  Biso   1.000  C 
  H32      1.0000 0.18100  0.48200  0.79200  Biso   1.000  H 
  C34      1.0000 0.11790  0.52270  0.67670  Biso   1.000  C 
  H33      1.0000 0.13690  0.59740  0.67500  Biso   1.000  H 
  C35      1.0000 0.10260  0.26140  0.77090  Biso   1.000  C 
  H34      1.0000 0.03950  0.20740  0.74480  Biso   1.000  H 
  H35      1.0000 0.07850  0.28350  0.81820  Biso   1.000  H 
  C36      1.0000 0.23680  0.20890  0.79160  Biso   1.000  C 
  C37      1.0000 0.26630  0.11740  0.75210  Biso   1.000  C 
  H36      1.0000 0.20330  0.08960  0.71060  Biso   1.000  H 
  C38      1.0000 0.38600  0.06630  0.77250  Biso   1.000  C 
  C39      1.0000 0.48210  0.11060  0.83390  Biso   1.000  C 
  H37      1.0000 0.56390  0.07770  0.84800  Biso   1.000  H 
  C40      1.0000 0.45550  0.20320  0.87350  Biso   1.000  C 
  C41      1.0000 0.55910  0.25340  0.93970  Biso   1.000  C 
  H38      1.0000 0.51690  0.28600  0.97740  Biso   1.000  H 
  H39      1.0000 0.60410  0.31170  0.91920  Biso   1.000  H 
  N13      1.0000 0.65300  0.17240  0.97820  Biso   1.000  N 
  C42      1.0000 0.77120  0.15540  0.96530  Biso   1.000  C 
  H40      1.0000 0.80960  0.20060  0.93470  Biso   1.000  H 
  N14      1.0000 0.82670  0.06650  0.00160  Biso   1.000  N 
  C43      1.0000 0.74040  0.02640  0.04170  Biso   1.000  C 
  C44      1.0000 0.63240  0.08990  0.02690  Biso   1.000  C 
  H41      1.0000 0.55850  0.07980  0.04600  Biso   1.000  H 
  H42      1.0000 0.75410  0.96500  0.07400  Biso   1.000  H 
  C45      1.0000 0.33210  0.25090  0.85270  Biso   1.000  C 
  H43      1.0000 0.31340  0.31180  0.88000  Biso   1.000  H 
  C46      1.0000 0.41580  0.96650  0.73060  Biso   1.000  C 
  H44      1.0000 0.36320  0.96750  0.67770  Biso   1.000  H 
  N15      1.0000 0.38970  0.86660  0.76860  Biso   1.000  N 
  C47      1.0000 0.26290  0.82830  0.76970  Biso   1.000  C 
  H45      1.0000 0.18480  0.86110  0.74440  Biso   1.000  H 
  C48      1.0000 0.27420  0.74350  0.81030  Biso   1.000  C 
  H46      1.0000 0.20500  0.70470  0.82150  Biso   1.000  H 
  N16      1.0000 0.40590  0.71440  0.83680  Biso   1.000  N 
  C49      1.0000 0.47970  0.79890  0.80960  Biso   1.000  C 
  H47      1.0000 0.56980  0.80500  0.81850  Biso   1.000  H 
  H48      1.0000 0.50670  0.96800  0.72860  Biso   1.000  H 
  N17      1.0000 0.93770  0.54020  0.38500  Biso   1.000  N 
  C50      1.0000 0.88210  0.47730  0.32330  Biso   1.000  C 
  H49      1.0000 0.86310  0.40260  0.32500  Biso   1.000  H 
  C51      1.0000 0.85830  0.54070  0.25820  Biso   1.000  C 
  H50      1.0000 0.81900  0.51800  0.20800  Biso   1.000  H 
  N18      1.0000 0.90170  0.64150  0.27980  Biso   1.000  N 
  C52      1.0000 0.89740  0.73860  0.22910  Biso   1.000  C 
  C53      1.0000 0.76320  0.79110  0.20840  Biso   1.000  C 
  C54      1.0000 0.66790  0.74910  0.14730  Biso   1.000  C 
  H51      1.0000 0.68660  0.68820  0.12000  Biso   1.000  H 
  C55      1.0000 0.54450  0.79680  0.12650  Biso   1.000  C 
  C56      1.0000 0.44090  0.74660  0.06030  Biso   1.000  C 
  H52      1.0000 0.39590  0.68830  0.08080  Biso   1.000  H 
  N19      1.0000 0.34700  0.82760  0.02180  Biso   1.000  N 
  C57      1.0000 0.22880  0.84460  0.03470  Biso   1.000  C 
  H53      1.0000 0.19040  0.79940  0.06530  Biso   1.000  H 
  N20      1.0000 0.17330  0.93350  0.99840  Biso   1.000  N 
  C58      1.0000 0.25960  0.97360  0.95830  Biso   1.000  C 
  H54      1.0000 0.24590  0.03500  0.92600  Biso   1.000  H 
  C59      1.0000 0.36760  0.91010  0.97310  Biso   1.000  C 
  H55      1.0000 0.44150  0.92020  0.95400  Biso   1.000  H 
  H56      1.0000 0.48310  0.71400  0.02260  Biso   1.000  H 
  C60      1.0000 0.51790  0.88940  0.16610  Biso   1.000  C 
  H57      1.0000 0.43610  0.92230  0.15200  Biso   1.000  H 
  C61      1.0000 0.61400  0.93370  0.22750  Biso   1.000  C 
  C62      1.0000 0.58420  0.03350  0.26940  Biso   1.000  C 
  N21      1.0000 0.61030  0.13340  0.23140  Biso   1.000  N 
  C63      1.0000 0.73710  0.17170  0.23030  Biso   1.000  C 
  C64      1.0000 0.72580  0.25650  0.18970  Biso   1.000  C 
  H58      1.0000 0.79500  0.29530  0.17850  Biso   1.000  H 
  N22      1.0000 0.59410  0.28560  0.16320  Biso   1.000  N 
  C65      1.0000 0.52030  0.20110  0.19040  Biso   1.000  C 
  H59      1.0000 0.43020  0.19500  0.18150  Biso   1.000  H 
  H60      1.0000 0.81520  0.13890  0.25560  Biso   1.000  H 
  H61      1.0000 0.49330  0.03200  0.27140  Biso   1.000  H 
  H62      1.0000 0.63680  0.03250  0.32230  Biso   1.000  H 
  C66      1.0000 0.73370  0.88260  0.24790  Biso   1.000  C 
  H63      1.0000 0.79670  0.91040  0.28940  Biso   1.000  H 
  H64      1.0000 0.92150  0.71650  0.18180  Biso   1.000  H 
  H65      1.0000 0.96050  0.79260  0.25520  Biso   1.000  H 
  C67      1.0000 0.95030  0.63830  0.35690  Biso   1.000  C 
  H66      1.0000 0.98820  0.69810  0.38660  Biso   1.000  H 
  O3       1.0000 0.93870  0.68260  0.54190  Biso   1.000  O 
  C68      1.0000 0.88070  0.75260  0.52100  Biso   1.000  C 
  C69      1.0000 0.74210  0.73280  0.45370  Biso   1.000  C 
  H67      1.0000 0.74040  0.78040  0.41010  Biso   1.000  H 
  H68      1.0000 0.66930  0.74930  0.47540  Biso   1.000  H 
  H69      1.0000 0.73710  0.65740  0.43680  Biso   1.000  H 
  O4       1.0000 0.88340  0.84620  0.53950  Biso   1.000  O 
  C70      1.0000 0.74040  0.47360  0.54170  Biso   1.000  C 
  H70      1.0000 0.75410  0.53500  0.57400  Biso   1.000  H 
  C71      1.0000 0.63240  0.41010  0.52690  Biso   1.000  C 
  H71      1.0000 0.55850  0.42020  0.54600  Biso   1.000  H 
  H72      1.0000 0.60410  0.18830  0.41920  Biso   1.000  H 
  C72      1.0000 0.33210  0.24910  0.35270  Biso   1.000  C 
  H73      1.0000 0.31340  0.18820  0.38000  Biso   1.000  H 
  C73      1.0000 0.41580  0.53350  0.23060  Biso   1.000  C 
  H74      1.0000 0.36320  0.53250  0.17770  Biso   1.000  H 
  N23      1.0000 0.38970  0.63340  0.26860  Biso   1.000  N 
  C74      1.0000 0.26290  0.67170  0.26970  Biso   1.000  C 
  H75      1.0000 0.18480  0.63890  0.24440  Biso   1.000  H 
  C75      1.0000 0.27420  0.75650  0.31030  Biso   1.000  C 
  H76      1.0000 0.20500  0.79530  0.32150  Biso   1.000  H 
  N24      1.0000 0.40590  0.78560  0.33680  Biso   1.000  N 
  C76      1.0000 0.47970  0.70110  0.30960  Biso   1.000  C 
  H77      1.0000 0.56980  0.69500  0.31850  Biso   1.000  H 
  H78      1.0000 0.50670  0.53200  0.22860  Biso   1.000  H 
  O5       1.0000 0.93870  0.81740  0.04190  Biso   1.000  O 
  C77      1.0000 0.88070  0.74740  0.02100  Biso   1.000  C 
  O6       1.0000 0.88340  0.65380  0.03950  Biso   1.000  O 
  C78      1.0000 0.74210  0.76720  0.95370  Biso   1.000  C 
  H79      1.0000 0.66930  0.75070  0.97540  Biso   1.000  H 
  H80      1.0000 0.73710  0.84260  0.93680  Biso   1.000  H 
  H81      1.0000 0.74040  0.71960  0.91010  Biso   1.000  H 
  O7       1.0000 0.06130  0.18260  0.95810  Biso   1.000  O 
  C79      1.0000 0.11930  0.25260  0.97900  Biso   1.000  C 
  O8       1.0000 0.11660  0.34620  0.96050  Biso   1.000  O 
  C80      1.0000 0.25790  0.23280  0.04630  Biso   1.000  C 
  H82      1.0000 0.26290  0.15740  0.06320  Biso   1.000  H 
  H83      1.0000 0.33070  0.24930  0.02460  Biso   1.000  H 
  H84      1.0000 0.25960  0.28040  0.08990  Biso   1.000  H 
