data_image0
_cell_length_a       10.182
_cell_length_b       11.587
_cell_length_c       18.07
_cell_angle_alpha    90
_cell_angle_beta     109.42
_cell_angle_gamma    90

_symmetry_space_group_name_H-M    "P 1"
_symmetry_int_tables_number       1

loop_
  _symmetry_equiv_pos_as_xyz
  'x, y, z'

loop_
  _atom_site_label
  _atom_site_occupancy
  _atom_site_fract_x
  _atom_site_fract_y
  _atom_site_fract_z
  _atom_site_thermal_displace_type
  _atom_site_B_iso_or_equiv
  _atom_site_type_symbol
  Co1      1.0000 0.39598  0.25061  0.82780  Biso   1.000  Co
  O1       1.0000 0.17130  0.24450  0.81935  Biso   1.000  O 
  C1       1.0000 0.20280  0.26910  0.89020  Biso   1.000  C 
  O2       1.0000 0.32720  0.27570  0.93544  Biso   1.000  O 
  C2       1.0000 0.08760  0.29200  0.92460  Biso   1.000  C 
  C3       1.0000 0.94840  0.26930  0.88020  Biso   1.000  C 
  H1       1.0000 0.92510  0.24280  0.82890  Biso   1.000  H 
  C4       1.0000 0.84530  0.28710  0.91400  Biso   1.000  C 
  C5       1.0000 0.69430  0.26020  0.86860  Biso   1.000  C 
  O3       1.0000 0.66060  0.23990  0.79648  Biso   1.000  O 
  Co2      1.0000 0.60402  0.25061  0.67220  Biso   1.000  Co
  O4       1.0000 0.39030  0.26000  0.59397  Biso   1.000  O 
  C6       1.0000 0.30570  0.26020  0.63140  Biso   1.000  C 
  O5       1.0000 0.33940  0.23990  0.70352  Biso   1.000  O 
  C7       1.0000 0.15470  0.28710  0.58600  Biso   1.000  C 
  C8       1.0000 0.12110  0.33080  0.51010  Biso   1.000  C 
  C9       1.0000 0.98400  0.35700  0.46850  Biso   1.000  C 
  C10      1.0000 0.87950  0.33570  0.50090  Biso   1.000  C 
  H2       1.0000 0.78710  0.35120  0.47170  Biso   1.000  H 
  C11      1.0000 0.91240  0.29200  0.57540  Biso   1.000  C 
  C12      1.0000 0.05160  0.26930  0.61980  Biso   1.000  C 
  H3       1.0000 0.07490  0.24280  0.67110  Biso   1.000  H 
  C13      1.0000 0.79720  0.26910  0.60980  Biso   1.000  C 
  O6       1.0000 0.67280  0.27570  0.56456  Biso   1.000  O 
  O7       1.0000 0.82870  0.24450  0.68065  Biso   1.000  O 
  N1       1.0000 0.93880  0.40670  0.39160  Biso   1.000  N 
  N2       1.0000 0.03250  0.43300  0.36520  Biso   1.000  N 
  N3       1.0000 0.10850  0.45920  0.33450  Biso   1.000  N 
  H4       1.0000 0.19020  0.34220  0.48770  Biso   1.000  H 
  N4       1.0000 0.59590  0.44500  0.67770  Biso   1.000  N 
  C14      1.0000 0.53160  0.50190  0.60990  Biso   1.000  C 
  H5       1.0000 0.48610  0.45900  0.56520  Biso   1.000  H 
  C15      1.0000 0.53050  0.62200  0.60410  Biso   1.000  C 
  C16      1.0000 0.59740  0.68760  0.67120  Biso   1.000  C 
  C17      1.0000 0.66310  0.62830  0.74110  Biso   1.000  C 
  C18      1.0000 0.66100  0.50900  0.74140  Biso   1.000  C 
  H6       1.0000 0.70710  0.47100  0.78820  Biso   1.000  H 
  H7       1.0000 0.70780  0.66880  0.78710  Biso   1.000  H 
  C19      1.0000 0.59670  0.81430  0.66900  Biso   1.000  C 
  C20      1.0000 0.51180  0.87660  0.60690  Biso   1.000  C 
  H8       1.0000 0.45230  0.83840  0.56330  Biso   1.000  H 
  C21      1.0000 0.51420  0.99620  0.60890  Biso   1.000  C 
  H9       1.0000 0.45440  0.03560  0.56600  Biso   1.000  H 
  N5       1.0000 0.59610  0.05780  0.66770  Biso   1.000  N 
  C22      1.0000 0.68230  0.99740  0.72620  Biso   1.000  C 
  C23      1.0000 0.68600  0.87950  0.72880  Biso   1.000  C 
  H10      1.0000 0.74970  0.84250  0.77140  Biso   1.000  H 
  H11      1.0000 0.74390  0.03770  0.76790  Biso   1.000  H 
  H12      1.0000 0.48590  0.65800  0.55630  Biso   1.000  H 
  O8       1.0000 0.60970  0.26000  0.90603  Biso   1.000  O 
  C24      1.0000 0.87890  0.33080  0.98990  Biso   1.000  C 
  C25      1.0000 0.01600  0.35700  0.03150  Biso   1.000  C 
  C26      1.0000 0.12050  0.33570  0.99910  Biso   1.000  C 
  H13      1.0000 0.21290  0.35120  0.02830  Biso   1.000  H 
  N6       1.0000 0.06120  0.40670  0.10840  Biso   1.000  N 
  N7       1.0000 0.96750  0.43300  0.13480  Biso   1.000  N 
  N8       1.0000 0.89150  0.45920  0.16550  Biso   1.000  N 
  H14      1.0000 0.80980  0.34220  0.01230  Biso   1.000  H 
  N9       1.0000 0.40390  0.05780  0.83230  Biso   1.000  N 
  C27      1.0000 0.31770  0.99740  0.77380  Biso   1.000  C 
  C28      1.0000 0.31400  0.87950  0.77120  Biso   1.000  C 
  H15      1.0000 0.25030  0.84250  0.72860  Biso   1.000  H 
  C29      1.0000 0.40330  0.81430  0.83100  Biso   1.000  C 
  C30      1.0000 0.40260  0.68760  0.82880  Biso   1.000  C 
  C31      1.0000 0.33690  0.62830  0.75890  Biso   1.000  C 
  H16      1.0000 0.29220  0.66880  0.71290  Biso   1.000  H 
  C32      1.0000 0.33900  0.50900  0.75860  Biso   1.000  C 
  H17      1.0000 0.29290  0.47100  0.71180  Biso   1.000  H 
  N10      1.0000 0.40410  0.44500  0.82230  Biso   1.000  N 
  C33      1.0000 0.46840  0.50190  0.89010  Biso   1.000  C 
  H18      1.0000 0.51390  0.45900  0.93480  Biso   1.000  H 
  C34      1.0000 0.46950  0.62200  0.89590  Biso   1.000  C 
  H19      1.0000 0.51410  0.65800  0.94370  Biso   1.000  H 
  C35      1.0000 0.48820  0.87660  0.89310  Biso   1.000  C 
  H20      1.0000 0.54770  0.83840  0.93670  Biso   1.000  H 
  C36      1.0000 0.48580  0.99620  0.89110  Biso   1.000  C 
  H21      1.0000 0.54560  0.03560  0.93400  Biso   1.000  H 
  H22      1.0000 0.25610  0.03770  0.73210  Biso   1.000  H 
