data_image0
_cell_length_a       12.57
_cell_length_b       17.821
_cell_length_c       6.742
_cell_angle_alpha    90
_cell_angle_beta     99.42
_cell_angle_gamma    90

_symmetry_space_group_name_H-M    "P 1"
_symmetry_int_tables_number       1

loop_
  _symmetry_equiv_pos_as_xyz
  'x, y, z'

loop_
  _atom_site_label
  _atom_site_occupancy
  _atom_site_fract_x
  _atom_site_fract_y
  _atom_site_fract_z
  _atom_site_thermal_displace_type
  _atom_site_B_iso_or_equiv
  _atom_site_type_symbol
  Pb1      1.0000 0.00000  0.43576  0.25000  Biso   1.000  Pb
  O1       1.0000 0.91170  0.53260  0.39250  Biso   1.000  O 
  C1       1.0000 0.83180  0.57530  0.31170  Biso   1.000  C 
  C2       1.0000 0.84500  0.65410  0.32130  Biso   1.000  C 
  H1       1.0000 0.91180  0.67340  0.37830  Biso   1.000  H 
  C3       1.0000 0.76380  0.70360  0.25050  Biso   1.000  C 
  H2       1.0000 0.77460  0.75520  0.26120  Biso   1.000  H 
  C4       1.0000 0.66470  0.67380  0.16200  Biso   1.000  C 
  N1       1.0000 0.57720  0.72480  0.08620  Biso   1.000  N 
  O2       1.0000 0.59340  0.79200  0.10920  Biso   1.000  O 
  O3       1.0000 0.49220  0.69980  0.00540  Biso   1.000  O 
  C5       1.0000 0.64660  0.59820  0.14510  Biso   1.000  C 
  H3       1.0000 0.57980  0.57980  0.08480  Biso   1.000  H 
  C6       1.0000 0.72950  0.54950  0.21940  Biso   1.000  C 
  N2       1.0000 0.70380  0.47040  0.20390  Biso   1.000  N 
  O4       1.0000 0.77640  0.42430  0.23090  Biso   1.000  O 
  O5       1.0000 0.60980  0.45160  0.16550  Biso   1.000  O 
  Pb2      1.0000 0.00000  0.56424  0.75000  Biso   1.000  Pb
  O6       1.0000 0.91170  0.46740  0.89250  Biso   1.000  O 
  C7       1.0000 0.83180  0.42470  0.81170  Biso   1.000  C 
  C8       1.0000 0.72950  0.45050  0.71940  Biso   1.000  C 
  C9       1.0000 0.64660  0.40180  0.64510  Biso   1.000  C 
  H4       1.0000 0.57980  0.42020  0.58480  Biso   1.000  H 
  C10      1.0000 0.66470  0.32620  0.66200  Biso   1.000  C 
  C11      1.0000 0.76380  0.29640  0.75050  Biso   1.000  C 
  H5       1.0000 0.77460  0.24480  0.76120  Biso   1.000  H 
  C12      1.0000 0.84500  0.34590  0.82130  Biso   1.000  C 
  H6       1.0000 0.91180  0.32660  0.87830  Biso   1.000  H 
  N3       1.0000 0.57720  0.27520  0.58620  Biso   1.000  N 
  O7       1.0000 0.59340  0.20800  0.60920  Biso   1.000  O 
  O8       1.0000 0.49220  0.30020  0.50540  Biso   1.000  O 
  N4       1.0000 0.70380  0.52960  0.70390  Biso   1.000  N 
  O9       1.0000 0.77640  0.57570  0.73090  Biso   1.000  O 
  O10      1.0000 0.60980  0.54840  0.66550  Biso   1.000  O 
  O11      1.0000 0.08830  0.46740  0.60750  Biso   1.000  O 
  C13      1.0000 0.16820  0.42470  0.68830  Biso   1.000  C 
  C14      1.0000 0.15500  0.34590  0.67870  Biso   1.000  C 
  H7       1.0000 0.08820  0.32660  0.62170  Biso   1.000  H 
  C15      1.0000 0.23620  0.29640  0.74950  Biso   1.000  C 
  H8       1.0000 0.22540  0.24480  0.73880  Biso   1.000  H 
  C16      1.0000 0.33530  0.32620  0.83800  Biso   1.000  C 
  N5       1.0000 0.42280  0.27520  0.91380  Biso   1.000  N 
  O12      1.0000 0.40660  0.20800  0.89080  Biso   1.000  O 
  O13      1.0000 0.50780  0.30020  0.99460  Biso   1.000  O 
  C17      1.0000 0.35340  0.40180  0.85490  Biso   1.000  C 
  H9       1.0000 0.42020  0.42020  0.91520  Biso   1.000  H 
  C18      1.0000 0.27050  0.45050  0.78060  Biso   1.000  C 
  N6       1.0000 0.29620  0.52960  0.79610  Biso   1.000  N 
  O14      1.0000 0.22360  0.57570  0.76910  Biso   1.000  O 
  O15      1.0000 0.39020  0.54840  0.83450  Biso   1.000  O 
  O16      1.0000 0.08830  0.53260  0.10750  Biso   1.000  O 
  C19      1.0000 0.16820  0.57530  0.18830  Biso   1.000  C 
  C20      1.0000 0.27050  0.54950  0.28060  Biso   1.000  C 
  C21      1.0000 0.35340  0.59820  0.35490  Biso   1.000  C 
  H10      1.0000 0.42020  0.57980  0.41520  Biso   1.000  H 
  C22      1.0000 0.33530  0.67380  0.33800  Biso   1.000  C 
  C23      1.0000 0.23620  0.70360  0.24950  Biso   1.000  C 
  C24      1.0000 0.15500  0.65410  0.17870  Biso   1.000  C 
  H11      1.0000 0.08820  0.67340  0.12170  Biso   1.000  H 
  H12      1.0000 0.22540  0.75520  0.23880  Biso   1.000  H 
  N7       1.0000 0.42280  0.72480  0.41380  Biso   1.000  N 
  O17      1.0000 0.40660  0.79200  0.39080  Biso   1.000  O 
  O18      1.0000 0.50780  0.69980  0.49460  Biso   1.000  O 
  N8       1.0000 0.29620  0.47040  0.29610  Biso   1.000  N 
  O19      1.0000 0.22360  0.42430  0.26910  Biso   1.000  O 
  O20      1.0000 0.39020  0.45160  0.33450  Biso   1.000  O 
