data_image0
_cell_length_a       6.0073
_cell_length_b       16.5286
_cell_length_c       8.3057
_cell_angle_alpha    90
_cell_angle_beta     100.56
_cell_angle_gamma    90

_symmetry_space_group_name_H-M    "P 1"
_symmetry_int_tables_number       1

loop_
  _symmetry_equiv_pos_as_xyz
  'x, y, z'

loop_
  _atom_site_label
  _atom_site_occupancy
  _atom_site_fract_x
  _atom_site_fract_y
  _atom_site_fract_z
  _atom_site_thermal_displace_type
  _atom_site_B_iso_or_equiv
  _atom_site_type_symbol
  Pb1      1.0000 0.04516  0.38352  0.12507  Biso   1.000  Pb
  Br1      1.0000 0.54965  0.40113  0.12565  Biso   1.000  Br
  Br2      1.0000 0.10815  0.25372  0.37005  Biso   1.000  Br
  Pb2      1.0000 0.04516  0.11648  0.62507  Biso   1.000  Pb
  Br3      1.0000 0.54965  0.09887  0.62565  Biso   1.000  Br
  Br4      1.0000 0.10815  0.24628  0.87005  Biso   1.000  Br
  O1       1.0000 0.17080  0.03930  0.88960  Biso   1.000  O 
  C1       1.0000 0.16160  0.97080  0.81970  Biso   1.000  C 
  C2       1.0000 0.27150  0.89730  0.91430  Biso   1.000  C 
  H1       1.0000 0.15090  0.86120  0.93960  Biso   1.000  H 
  C3       1.0000 0.42280  0.84940  0.82250  Biso   1.000  C 
  H2       1.0000 0.33580  0.83310  0.71430  Biso   1.000  H 
  H3       1.0000 0.47450  0.79960  0.88450  Biso   1.000  H 
  N1       1.0000 0.62500  0.89860  0.79900  Biso   1.000  N 
  H4       1.0000 0.72330  0.86670  0.75640  Biso   1.000  H 
  H5       1.0000 0.57890  0.94020  0.72900  Biso   1.000  H 
  H6       1.0000 0.69510  0.91880  0.89720  Biso   1.000  H 
  H7       1.0000 0.36220  0.91580  0.01950  Biso   1.000  H 
  O2       1.0000 0.06610  0.96100  0.67250  Biso   1.000  O 
  O3       1.0000 0.17080  0.46070  0.38960  Biso   1.000  O 
  C4       1.0000 0.16160  0.52920  0.31970  Biso   1.000  C 
  C5       1.0000 0.27150  0.60270  0.41430  Biso   1.000  C 
  H8       1.0000 0.15090  0.63880  0.43960  Biso   1.000  H 
  H9       1.0000 0.36220  0.58420  0.51950  Biso   1.000  H 
  C6       1.0000 0.42280  0.65060  0.32250  Biso   1.000  C 
  H10      1.0000 0.47450  0.70040  0.38450  Biso   1.000  H 
  H11      1.0000 0.33580  0.66690  0.21430  Biso   1.000  H 
  N2       1.0000 0.62500  0.60140  0.29900  Biso   1.000  N 
  H12      1.0000 0.69510  0.58120  0.39720  Biso   1.000  H 
  H13      1.0000 0.57890  0.55980  0.22900  Biso   1.000  H 
  H14      1.0000 0.72330  0.63330  0.25640  Biso   1.000  H 
  O4       1.0000 0.06610  0.53900  0.17250  Biso   1.000  O 
