data_image0
_cell_length_a       18.1397
_cell_length_b       19.5336
_cell_length_c       9.2063
_cell_angle_alpha    90
_cell_angle_beta     90
_cell_angle_gamma    90

_symmetry_space_group_name_H-M    "P 1"
_symmetry_int_tables_number       1

loop_
  _symmetry_equiv_pos_as_xyz
  'x, y, z'

loop_
  _atom_site_label
  _atom_site_occupancy
  _atom_site_fract_x
  _atom_site_fract_y
  _atom_site_fract_z
  _atom_site_thermal_displace_type
  _atom_site_B_iso_or_equiv
  _atom_site_type_symbol
  C1       1.0000 0.50000  0.50000  0.78700  Biso   1.000  C 
  C2       1.0000 0.00000  0.00000  0.78700  Biso   1.000  C 
  H1       1.0000 0.50140  0.45990  0.84920  Biso   1.000  H 
  H2       1.0000 0.49860  0.54010  0.84920  Biso   1.000  H 
  H3       1.0000 0.99860  0.95990  0.84920  Biso   1.000  H 
  H4       1.0000 0.00140  0.04010  0.84920  Biso   1.000  H 
  Ag1      1.0000 0.09372  0.49988  0.98274  Biso   1.000  Ag
  Ag2      1.0000 0.90628  0.50012  0.98274  Biso   1.000  Ag
  Ag3      1.0000 0.40628  0.99988  0.98274  Biso   1.000  Ag
  Ag4      1.0000 0.59372  0.00012  0.98274  Biso   1.000  Ag
  P1       1.0000 0.08443  0.38294  0.07106  Biso   1.000  P 
  P2       1.0000 0.91557  0.61706  0.07106  Biso   1.000  P 
  P3       1.0000 0.41557  0.88294  0.07106  Biso   1.000  P 
  P4       1.0000 0.58443  0.11706  0.07106  Biso   1.000  P 
  P5       1.0000 0.91611  0.38328  0.07282  Biso   1.000  P 
  P6       1.0000 0.08389  0.61672  0.07282  Biso   1.000  P 
  P7       1.0000 0.58389  0.88328  0.07282  Biso   1.000  P 
  P8       1.0000 0.41611  0.11672  0.07282  Biso   1.000  P 
  N1       1.0000 0.21920  0.49750  0.89510  Biso   1.000  N 
  N2       1.0000 0.78080  0.50250  0.89510  Biso   1.000  N 
  N3       1.0000 0.28080  0.99750  0.89510  Biso   1.000  N 
  N4       1.0000 0.71920  0.00250  0.89510  Biso   1.000  N 
  C3       1.0000 0.89980  0.31220  0.94990  Biso   1.000  C 
  C4       1.0000 0.10020  0.68780  0.94990  Biso   1.000  C 
  C5       1.0000 0.60020  0.81220  0.94990  Biso   1.000  C 
  C6       1.0000 0.39980  0.18780  0.94990  Biso   1.000  C 
  C7       1.0000 0.91300  0.24540  0.98580  Biso   1.000  C 
  C8       1.0000 0.08700  0.75460  0.98580  Biso   1.000  C 
  C9       1.0000 0.58700  0.74540  0.98580  Biso   1.000  C 
  C10      1.0000 0.41300  0.25460  0.98580  Biso   1.000  C 
  H5       1.0000 0.93450  0.23560  0.07510  Biso   1.000  H 
  H6       1.0000 0.06550  0.76440  0.07510  Biso   1.000  H 
  H7       1.0000 0.56550  0.73560  0.07510  Biso   1.000  H 
  H8       1.0000 0.43450  0.26440  0.07510  Biso   1.000  H 
  C11      1.0000 0.84480  0.37500  0.21000  Biso   1.000  C 
  C12      1.0000 0.15520  0.62500  0.21000  Biso   1.000  C 
  C13      1.0000 0.65520  0.87500  0.21000  Biso   1.000  C 
  C14      1.0000 0.34480  0.12500  0.21000  Biso   1.000  C 
  C15      1.0000 0.00000  0.36250  0.17320  Biso   1.000  C 
  C16      1.0000 0.00000  0.63750  0.17320  Biso   1.000  C 
  C17      1.0000 0.50000  0.86250  0.17320  Biso   1.000  C 
  C18      1.0000 0.50000  0.13750  0.17320  Biso   1.000  C 
  H9       1.0000 0.99990  0.31410  0.19650  Biso   1.000  H 
  H10      1.0000 0.00010  0.68590  0.19650  Biso   1.000  H 
  H11      1.0000 0.50010  0.81410  0.19650  Biso   1.000  H 
  H12      1.0000 0.49990  0.18590  0.19650  Biso   1.000  H 
  H13      1.0000 0.00020  0.38780  0.26400  Biso   1.000  H 
  H14      1.0000 0.99980  0.61220  0.26400  Biso   1.000  H 
  H15      1.0000 0.49980  0.88780  0.26400  Biso   1.000  H 
  H16      1.0000 0.50020  0.11220  0.26400  Biso   1.000  H 
  C19      1.0000 0.11210  0.24900  0.98000  Biso   1.000  C 
  C20      1.0000 0.88790  0.75100  0.98000  Biso   1.000  C 
  C21      1.0000 0.38790  0.74900  0.98000  Biso   1.000  C 
  C22      1.0000 0.61210  0.25100  0.98000  Biso   1.000  C 
  H17      1.0000 0.12280  0.24030  0.07700  Biso   1.000  H 
  H18      1.0000 0.87720  0.75970  0.07700  Biso   1.000  H 
  H19      1.0000 0.37720  0.74030  0.07700  Biso   1.000  H 
  H20      1.0000 0.62280  0.25970  0.07700  Biso   1.000  H 
  C23      1.0000 0.09410  0.31330  0.94020  Biso   1.000  C 
  C24      1.0000 0.90590  0.68670  0.94020  Biso   1.000  C 
  C25      1.0000 0.40590  0.81330  0.94020  Biso   1.000  C 
  C26      1.0000 0.59410  0.18670  0.94020  Biso   1.000  C 
  C27      1.0000 0.15880  0.36750  0.19980  Biso   1.000  C 
  C28      1.0000 0.84120  0.63250  0.19980  Biso   1.000  C 
  C29      1.0000 0.34120  0.86750  0.19980  Biso   1.000  C 
  C30      1.0000 0.65880  0.13250  0.19980  Biso   1.000  C 
  C31      1.0000 0.22930  0.36140  0.14440  Biso   1.000  C 
  C32      1.0000 0.77070  0.63860  0.14440  Biso   1.000  C 
  C33      1.0000 0.27070  0.86140  0.14440  Biso   1.000  C 
  C34      1.0000 0.72930  0.13860  0.14440  Biso   1.000  C 
  H21      1.0000 0.23650  0.36110  0.04440  Biso   1.000  H 
  H22      1.0000 0.76350  0.63890  0.04440  Biso   1.000  H 
  H23      1.0000 0.26350  0.86110  0.04440  Biso   1.000  H 
  H24      1.0000 0.73650  0.13890  0.04440  Biso   1.000  H 
  C35      1.0000 0.27780  0.50880  0.97490  Biso   1.000  C 
  C36      1.0000 0.72220  0.49120  0.97490  Biso   1.000  C 
  C37      1.0000 0.22220  0.00880  0.97490  Biso   1.000  C 
  C38      1.0000 0.77780  0.99120  0.97490  Biso   1.000  C 
  H25      1.0000 0.27110  0.51740  0.07340  Biso   1.000  H 
  H26      1.0000 0.72890  0.48260  0.07340  Biso   1.000  H 
  H27      1.0000 0.22890  0.01740  0.07340  Biso   1.000  H 
  H28      1.0000 0.77110  0.98260  0.07340  Biso   1.000  H 
  C39      1.0000 0.34860  0.50870  0.92150  Biso   1.000  C 
  C40      1.0000 0.65140  0.49130  0.92150  Biso   1.000  C 
  C41      1.0000 0.15140  0.00870  0.92150  Biso   1.000  C 
  C42      1.0000 0.84860  0.99130  0.92150  Biso   1.000  C 
  H29      1.0000 0.38850  0.51610  0.98290  Biso   1.000  H 
  H30      1.0000 0.61150  0.48390  0.98290  Biso   1.000  H 
  H31      1.0000 0.11150  0.01610  0.98290  Biso   1.000  H 
  H32      1.0000 0.88850  0.98390  0.98290  Biso   1.000  H 
  C43      1.0000 0.35960  0.49690  0.77130  Biso   1.000  C 
  C44      1.0000 0.64040  0.50310  0.77130  Biso   1.000  C 
  C45      1.0000 0.14040  0.99690  0.77130  Biso   1.000  C 
  C46      1.0000 0.85960  0.00310  0.77130  Biso   1.000  C 
  C47      1.0000 0.29930  0.48350  0.69340  Biso   1.000  C 
  C48      1.0000 0.70070  0.51650  0.69340  Biso   1.000  C 
  C49      1.0000 0.20070  0.98350  0.69340  Biso   1.000  C 
  C50      1.0000 0.79930  0.01650  0.69340  Biso   1.000  C 
  H33      1.0000 0.30370  0.47440  0.59460  Biso   1.000  H 
  H34      1.0000 0.69630  0.52560  0.59460  Biso   1.000  H 
  H35      1.0000 0.19630  0.97440  0.59460  Biso   1.000  H 
  H36      1.0000 0.80370  0.02560  0.59460  Biso   1.000  H 
  C51      1.0000 0.43290  0.49800  0.69980  Biso   1.000  C 
  C52      1.0000 0.56710  0.50200  0.69980  Biso   1.000  C 
  C53      1.0000 0.06710  0.99800  0.69980  Biso   1.000  C 
  C54      1.0000 0.93290  0.00200  0.69980  Biso   1.000  C 
  H37      1.0000 0.43590  0.45770  0.63840  Biso   1.000  H 
  H38      1.0000 0.56410  0.54230  0.63840  Biso   1.000  H 
  H39      1.0000 0.06410  0.95770  0.63840  Biso   1.000  H 
  H40      1.0000 0.93590  0.04230  0.63840  Biso   1.000  H 
  H41      1.0000 0.43390  0.53740  0.63590  Biso   1.000  H 
  H42      1.0000 0.56610  0.46260  0.63590  Biso   1.000  H 
  H43      1.0000 0.06610  0.03740  0.63590  Biso   1.000  H 
  H44      1.0000 0.93390  0.96260  0.63590  Biso   1.000  H 
  C55      1.0000 0.78330  0.33560  0.19150  Biso   1.000  C 
  C56      1.0000 0.21670  0.66440  0.19150  Biso   1.000  C 
  C57      1.0000 0.71670  0.83560  0.19150  Biso   1.000  C 
  C58      1.0000 0.28330  0.16440  0.19150  Biso   1.000  C 
  H45      1.0000 0.77910  0.30720  0.11080  Biso   1.000  H 
  H46      1.0000 0.22090  0.69280  0.11080  Biso   1.000  H 
  H47      1.0000 0.72090  0.80720  0.11080  Biso   1.000  H 
  H48      1.0000 0.27910  0.19280  0.11080  Biso   1.000  H 
  C59      1.0000 0.89530  0.19230  0.89430  Biso   1.000  C 
  C60      1.0000 0.10470  0.80770  0.89430  Biso   1.000  C 
  C61      1.0000 0.60470  0.69230  0.89430  Biso   1.000  C 
  C62      1.0000 0.39530  0.30770  0.89430  Biso   1.000  C 
  H49      1.0000 0.90280  0.14720  0.92350  Biso   1.000  H 
  H50      1.0000 0.09720  0.85280  0.92350  Biso   1.000  H 
  H51      1.0000 0.59720  0.64720  0.92350  Biso   1.000  H 
  H52      1.0000 0.40280  0.35280  0.92350  Biso   1.000  H 
  C63      1.0000 0.86980  0.32510  0.81510  Biso   1.000  C 
  C64      1.0000 0.13020  0.67490  0.81510  Biso   1.000  C 
  C65      1.0000 0.63020  0.82510  0.81510  Biso   1.000  C 
  C66      1.0000 0.36980  0.17490  0.81510  Biso   1.000  C 
  H53      1.0000 0.85890  0.36980  0.78790  Biso   1.000  H 
  H54      1.0000 0.14110  0.63020  0.78790  Biso   1.000  H 
  H55      1.0000 0.64110  0.86980  0.78790  Biso   1.000  H 
  H56      1.0000 0.35890  0.13020  0.78790  Biso   1.000  H 
  C67      1.0000 0.07640  0.32350  0.79760  Biso   1.000  C 
  C68      1.0000 0.92360  0.67650  0.79760  Biso   1.000  C 
  C69      1.0000 0.42360  0.82350  0.79760  Biso   1.000  C 
  C70      1.0000 0.57640  0.17650  0.79760  Biso   1.000  C 
  H57      1.0000 0.06090  0.36640  0.76630  Biso   1.000  H 
  H58      1.0000 0.93910  0.63360  0.76630  Biso   1.000  H 
  H59      1.0000 0.43910  0.86640  0.76630  Biso   1.000  H 
  H60      1.0000 0.56090  0.13360  0.76630  Biso   1.000  H 
  C71      1.0000 0.28990  0.35580  0.23760  Biso   1.000  C 
  C72      1.0000 0.71010  0.64420  0.23760  Biso   1.000  C 
  C73      1.0000 0.21010  0.85580  0.23760  Biso   1.000  C 
  C74      1.0000 0.78990  0.14420  0.23760  Biso   1.000  C 
  H61      1.0000 0.33760  0.35450  0.20050  Biso   1.000  H 
  H62      1.0000 0.66240  0.64550  0.20050  Biso   1.000  H 
  H63      1.0000 0.16240  0.85450  0.20050  Biso   1.000  H 
  H64      1.0000 0.83760  0.14550  0.20050  Biso   1.000  H 
  C75      1.0000 0.27800  0.35230  0.38320  Biso   1.000  C 
  C76      1.0000 0.72200  0.64770  0.38320  Biso   1.000  C 
  C77      1.0000 0.22200  0.85230  0.38320  Biso   1.000  C 
  C78      1.0000 0.77800  0.14770  0.38320  Biso   1.000  C 
  H65      1.0000 0.31770  0.34730  0.44620  Biso   1.000  H 
  H66      1.0000 0.68230  0.65270  0.44620  Biso   1.000  H 
  H67      1.0000 0.18230  0.84730  0.44620  Biso   1.000  H 
  H68      1.0000 0.81770  0.15270  0.44620  Biso   1.000  H 
  C79      1.0000 0.11510  0.19550  0.88100  Biso   1.000  C 
  C80      1.0000 0.88490  0.80450  0.88100  Biso   1.000  C 
  C81      1.0000 0.38490  0.69550  0.88100  Biso   1.000  C 
  C82      1.0000 0.61510  0.30450  0.88100  Biso   1.000  C 
  H69      1.0000 0.12700  0.15160  0.91260  Biso   1.000  H 
  H70      1.0000 0.87300  0.84840  0.91260  Biso   1.000  H 
  H71      1.0000 0.37300  0.65160  0.91260  Biso   1.000  H 
  H72      1.0000 0.62700  0.34840  0.91260  Biso   1.000  H 
  C83      1.0000 0.14910  0.36390  0.34510  Biso   1.000  C 
  C84      1.0000 0.85090  0.63610  0.34510  Biso   1.000  C 
  C85      1.0000 0.35090  0.86390  0.34510  Biso   1.000  C 
  C86      1.0000 0.64910  0.13610  0.34510  Biso   1.000  C 
  H73      1.0000 0.10180  0.36660  0.38400  Biso   1.000  H 
  H74      1.0000 0.89820  0.63340  0.38400  Biso   1.000  H 
  H75      1.0000 0.39820  0.86660  0.38400  Biso   1.000  H 
  H76      1.0000 0.60180  0.13340  0.38400  Biso   1.000  H 
  C87      1.0000 0.73310  0.37190  0.41410  Biso   1.000  C 
  C88      1.0000 0.26690  0.62810  0.41410  Biso   1.000  C 
  C89      1.0000 0.76690  0.87190  0.41410  Biso   1.000  C 
  C90      1.0000 0.23310  0.12810  0.41410  Biso   1.000  C 
  H77      1.0000 0.69650  0.36920  0.48480  Biso   1.000  H 
  H78      1.0000 0.30350  0.63080  0.48480  Biso   1.000  H 
  H79      1.0000 0.80350  0.86920  0.48480  Biso   1.000  H 
  H80      1.0000 0.19650  0.13080  0.48480  Biso   1.000  H 
  C91      1.0000 0.20940  0.35610  0.43680  Biso   1.000  C 
  C92      1.0000 0.79060  0.64390  0.43680  Biso   1.000  C 
  C93      1.0000 0.29060  0.85610  0.43680  Biso   1.000  C 
  C94      1.0000 0.70940  0.14390  0.43680  Biso   1.000  C 
  H81      1.0000 0.20200  0.35340  0.53660  Biso   1.000  H 
  H82      1.0000 0.79800  0.64660  0.53660  Biso   1.000  H 
  H83      1.0000 0.29800  0.85340  0.53660  Biso   1.000  H 
  H84      1.0000 0.70200  0.14660  0.53660  Biso   1.000  H 
  C95      1.0000 0.23130  0.48310  0.75670  Biso   1.000  C 
  C96      1.0000 0.76870  0.51690  0.75670  Biso   1.000  C 
  C97      1.0000 0.26870  0.98310  0.75670  Biso   1.000  C 
  C98      1.0000 0.73130  0.01690  0.75670  Biso   1.000  C 
  H85      1.0000 0.19100  0.47190  0.69910  Biso   1.000  H 
  H86      1.0000 0.80900  0.52810  0.69910  Biso   1.000  H 
  H87      1.0000 0.30900  0.97190  0.69910  Biso   1.000  H 
  H88      1.0000 0.69100  0.02810  0.69910  Biso   1.000  H 
  C99      1.0000 0.08160  0.27020  0.70000  Biso   1.000  C 
  C100     1.0000 0.91840  0.72980  0.70000  Biso   1.000  C 
  C101     1.0000 0.41840  0.77020  0.70000  Biso   1.000  C 
  C102     1.0000 0.58160  0.22980  0.70000  Biso   1.000  C 
  H89      1.0000 0.07130  0.27790  0.60240  Biso   1.000  H 
  H90      1.0000 0.92870  0.72210  0.60240  Biso   1.000  H 
  H91      1.0000 0.42870  0.77790  0.60240  Biso   1.000  H 
  H92      1.0000 0.57130  0.22210  0.60240  Biso   1.000  H 
  C103     1.0000 0.84960  0.40970  0.33110  Biso   1.000  C 
  C104     1.0000 0.15040  0.59030  0.33110  Biso   1.000  C 
  C105     1.0000 0.65040  0.90970  0.33110  Biso   1.000  C 
  C106     1.0000 0.34960  0.09030  0.33110  Biso   1.000  C 
  H93      1.0000 0.89230  0.43440  0.34970  Biso   1.000  H 
  H94      1.0000 0.10770  0.56560  0.34970  Biso   1.000  H 
  H95      1.0000 0.60770  0.93440  0.34970  Biso   1.000  H 
  H96      1.0000 0.39230  0.06560  0.34970  Biso   1.000  H 
  C107     1.0000 0.79380  0.41080  0.43190  Biso   1.000  C 
  C108     1.0000 0.20620  0.58920  0.43190  Biso   1.000  C 
  C109     1.0000 0.70620  0.91080  0.43190  Biso   1.000  C 
  C110     1.0000 0.29380  0.08920  0.43190  Biso   1.000  C 
  H97      1.0000 0.79790  0.43870  0.51330  Biso   1.000  H 
  H98      1.0000 0.20210  0.56130  0.51330  Biso   1.000  H 
  H99      1.0000 0.70210  0.93870  0.51330  Biso   1.000  H 
  H100     1.0000 0.29790  0.06130  0.51330  Biso   1.000  H 
  C111     1.0000 0.85590  0.27160  0.72000  Biso   1.000  C 
  C112     1.0000 0.14410  0.72840  0.72000  Biso   1.000  C 
  C113     1.0000 0.64410  0.77160  0.72000  Biso   1.000  C 
  C114     1.0000 0.35590  0.22840  0.72000  Biso   1.000  C 
  H101     1.0000 0.83860  0.28070  0.62680  Biso   1.000  H 
  H102     1.0000 0.16140  0.71930  0.62680  Biso   1.000  H 
  H103     1.0000 0.66140  0.78070  0.62680  Biso   1.000  H 
  H104     1.0000 0.33860  0.21930  0.62680  Biso   1.000  H 
  C115     1.0000 0.86740  0.20580  0.76280  Biso   1.000  C 
  C116     1.0000 0.13260  0.79420  0.76280  Biso   1.000  C 
  C117     1.0000 0.63260  0.70580  0.76280  Biso   1.000  C 
  C118     1.0000 0.36740  0.29420  0.76280  Biso   1.000  C 
  H105     1.0000 0.85580  0.17000  0.70030  Biso   1.000  H 
  H106     1.0000 0.14420  0.83000  0.70030  Biso   1.000  H 
  H107     1.0000 0.64420  0.67000  0.70030  Biso   1.000  H 
  H108     1.0000 0.35580  0.33000  0.70030  Biso   1.000  H 
  C119     1.0000 0.10130  0.20680  0.74500  Biso   1.000  C 
  C120     1.0000 0.89870  0.79320  0.74500  Biso   1.000  C 
  C121     1.0000 0.39870  0.70680  0.74500  Biso   1.000  C 
  C122     1.0000 0.60130  0.29320  0.74500  Biso   1.000  C 
  H109     1.0000 0.10510  0.17130  0.67770  Biso   1.000  H 
  H110     1.0000 0.89490  0.82870  0.67770  Biso   1.000  H 
  H111     1.0000 0.39490  0.67130  0.67770  Biso   1.000  H 
  H112     1.0000 0.60510  0.32870  0.67770  Biso   1.000  H 
  C123     1.0000 0.72850  0.33800  0.29130  Biso   1.000  C 
  C124     1.0000 0.27150  0.66200  0.29130  Biso   1.000  C 
  C125     1.0000 0.77150  0.83800  0.29130  Biso   1.000  C 
  C126     1.0000 0.22850  0.16200  0.29130  Biso   1.000  C 
  H113     1.0000 0.68510  0.31440  0.27170  Biso   1.000  H 
  H114     1.0000 0.31490  0.68560  0.27170  Biso   1.000  H 
  H115     1.0000 0.81490  0.81440  0.27170  Biso   1.000  H 
  H116     1.0000 0.18510  0.18560  0.27170  Biso   1.000  H 
  Cl1      1.0000 0.00000  0.50000  0.60630  Biso   1.000  Cl
  Cl2      1.0000 0.50000  0.00000  0.60630  Biso   1.000  Cl
  O1       1.0000 0.06070  0.51110  0.69270  Biso   1.000  O 
  O2       1.0000 0.93930  0.48890  0.69270  Biso   1.000  O 
  O3       1.0000 0.43930  0.01110  0.69270  Biso   1.000  O 
  O4       1.0000 0.56070  0.98890  0.69270  Biso   1.000  O 
  O5       1.0000 0.98470  0.55470  0.51760  Biso   1.000  O 
  O6       1.0000 0.01530  0.44530  0.51760  Biso   1.000  O 
  O7       1.0000 0.51530  0.05470  0.51760  Biso   1.000  O 
  O8       1.0000 0.48470  0.94530  0.51760  Biso   1.000  O 
  Cl3      1.0000 0.50500  0.40130  0.29850  Biso   1.000  Cl
  Cl4      1.0000 0.49500  0.59870  0.29850  Biso   1.000  Cl
  Cl5      1.0000 0.99500  0.90130  0.29850  Biso   1.000  Cl
  Cl6      1.0000 0.00500  0.09870  0.29850  Biso   1.000  Cl
  O9       1.0000 0.56900  0.42920  0.34660  Biso   1.000  O 
  O10      1.0000 0.43100  0.57080  0.34660  Biso   1.000  O 
  O11      1.0000 0.93100  0.92920  0.34660  Biso   1.000  O 
  O12      1.0000 0.06900  0.07080  0.34660  Biso   1.000  O 
  O13      1.0000 0.49360  0.41660  0.15740  Biso   1.000  O 
  O14      1.0000 0.50640  0.58340  0.15740  Biso   1.000  O 
  O15      1.0000 0.00640  0.91660  0.15740  Biso   1.000  O 
  O16      1.0000 0.99360  0.08340  0.15740  Biso   1.000  O 
  O17      1.0000 0.50850  0.33150  0.31400  Biso   1.000  O 
  O18      1.0000 0.49150  0.66850  0.31400  Biso   1.000  O 
  O19      1.0000 0.99150  0.83150  0.31400  Biso   1.000  O 
  O20      1.0000 0.00850  0.16850  0.31400  Biso   1.000  O 
  O21      1.0000 0.44960  0.42690  0.37920  Biso   1.000  O 
  O22      1.0000 0.55040  0.57310  0.37920  Biso   1.000  O 
  O23      1.0000 0.05040  0.92690  0.37920  Biso   1.000  O 
  O24      1.0000 0.94960  0.07310  0.37920  Biso   1.000  O 
  H117     1.0000 0.05192  0.55166  0.75537  Biso   1.000  H 
  H118     1.0000 0.94808  0.44834  0.75537  Biso   1.000  H 
  H119     1.0000 0.44808  0.05166  0.75537  Biso   1.000  H 
  H120     1.0000 0.55192  0.94834  0.75537  Biso   1.000  H 
