data_image0
_cell_length_a       10.0358
_cell_length_b       15.9728
_cell_length_c       21.559
_cell_angle_alpha    98.333
_cell_angle_beta     93.782
_cell_angle_gamma    107.759

_symmetry_space_group_name_H-M    "P 1"
_symmetry_int_tables_number       1

loop_
  _symmetry_equiv_pos_as_xyz
  'x, y, z'

loop_
  _atom_site_label
  _atom_site_occupancy
  _atom_site_fract_x
  _atom_site_fract_y
  _atom_site_fract_z
  _atom_site_thermal_displace_type
  _atom_site_B_iso_or_equiv
  _atom_site_type_symbol
  Cu1      1.0000 0.62647  0.70005  0.45814  Biso   1.000  Cu
  O1       1.0000 0.56540  0.69600  0.36685  Biso   1.000  O 
  C1       1.0000 0.44490  0.63830  0.34520  Biso   1.000  C 
  C2       1.0000 0.37550  0.58310  0.39230  Biso   1.000  C 
  C3       1.0000 0.24820  0.51260  0.38470  Biso   1.000  C 
  C4       1.0000 0.15630  0.47960  0.32130  Biso   1.000  C 
  Cu2      1.0000 0.06656  0.41343  0.20136  Biso   1.000  Cu
  O2       1.0000 0.18840  0.42780  0.28094  Biso   1.000  O 
  O3       1.0000 0.18180  0.32110  0.14720  Biso   1.000  O 
  H1       1.0000 0.13950  0.30209  0.10244  Biso   1.000  H 
  H2       1.0000 0.17079  0.26764  0.16733  Biso   1.000  H 
  O4       1.0000 0.20180  0.52650  0.18943  Biso   1.000  O 
  H3       1.0000 0.29665  0.51967  0.18775  Biso   1.000  H 
  H4       1.0000 0.17172  0.54280  0.14930  Biso   1.000  H 
  O5       1.0000 0.93710  0.41530  0.13185  Biso   1.000  O 
  C5       1.0000 0.95460  0.49530  0.10810  Biso   1.000  C 
  O6       1.0000 0.04750  0.57550  0.12100  Biso   1.000  O 
  C6       1.0000 0.82350  0.46560  0.05510  Biso   1.000  C 
  C7       1.0000 0.83340  0.52910  0.01740  Biso   1.000  C 
  H5       1.0000 0.90620  0.58310  0.02360  Biso   1.000  H 
  C8       1.0000 0.71990  0.50330  0.96780  Biso   1.000  C 
  H6       1.0000 0.73140  0.53900  0.93680  Biso   1.000  H 
  C9       1.0000 0.59790  0.43460  0.95940  Biso   1.000  C 
  C10      1.0000 0.56980  0.37490  0.00190  Biso   1.000  C 
  H7       1.0000 0.48360  0.33100  0.00120  Biso   1.000  H 
  C11      1.0000 0.70510  0.39140  0.05250  Biso   1.000  C 
  H8       1.0000 0.70390  0.35130  0.07980  Biso   1.000  H 
  C12      1.0000 0.48140  0.42280  0.90890  Biso   1.000  C 
  H9       1.0000 0.39530  0.37970  0.90980  Biso   1.000  H 
  C13      1.0000 0.49290  0.46800  0.86520  Biso   1.000  C 
  H10      1.0000 0.57770  0.51360  0.86710  Biso   1.000  H 
  C14      1.0000 0.38570  0.45660  0.81030  Biso   1.000  C 
  C15      1.0000 0.42150  0.49480  0.76020  Biso   1.000  C 
  C16      1.0000 0.32390  0.48130  0.70880  Biso   1.000  C 
  H11      1.0000 0.35300  0.50870  0.67460  Biso   1.000  H 
  N1       1.0000 0.19090  0.43120  0.70558  Biso   1.000  N 
  C17      1.0000 0.15500  0.39470  0.75510  Biso   1.000  C 
  H12      1.0000 0.06150  0.36050  0.75490  Biso   1.000  H 
  C18      1.0000 0.24880  0.40420  0.80800  Biso   1.000  C 
  H13      1.0000 0.21880  0.37530  0.84140  Biso   1.000  H 
  Cu3      1.0000 0.04994  0.40772  0.63307  Biso   1.000  Cu
  O7       1.0000 0.14830  0.49787  0.58304  Biso   1.000  O 
  C19      1.0000 0.22360  0.46340  0.55060  Biso   1.000  C 
  O8       1.0000 0.24520  0.39360  0.55853  Biso   1.000  O 
  Cu4      1.0000 0.37353  0.29995  0.54186  Biso   1.000  Cu
  O9       1.0000 0.38850  0.31152  0.45025  Biso   1.000  O 
  C20      1.0000 0.49200  0.37720  0.44080  Biso   1.000  C 
  O10      1.0000 0.51320  0.40260  0.39082  Biso   1.000  O 
  C21      1.0000 0.59310  0.42380  0.49910  Biso   1.000  C 
  N2       1.0000 0.55260  0.39020  0.55013  Biso   1.000  N 
  C22      1.0000 0.62450  0.41690  0.60770  Biso   1.000  C 
  C23      1.0000 0.75180  0.48740  0.61530  Biso   1.000  C 
  C24      1.0000 0.79620  0.52480  0.56360  Biso   1.000  C 
  C25      1.0000 0.72010  0.49350  0.50446  Biso   1.000  C 
  C26      1.0000 0.77640  0.53660  0.44940  Biso   1.000  C 
  Cu5      1.0000 0.95006  0.59228  0.36693  Biso   1.000  Cu
  O11      1.0000 0.85170  0.50213  0.41696  Biso   1.000  O 
  N3       1.0000 0.80910  0.56880  0.29442  Biso   1.000  N 
  C27      1.0000 0.67610  0.51870  0.29120  Biso   1.000  C 
  H14      1.0000 0.64700  0.49130  0.32540  Biso   1.000  H 
  C28      1.0000 0.57850  0.50520  0.23980  Biso   1.000  C 
  H15      1.0000 0.48640  0.46890  0.23990  Biso   1.000  H 
  C29      1.0000 0.61430  0.54340  0.18970  Biso   1.000  C 
  C30      1.0000 0.50710  0.53200  0.13480  Biso   1.000  C 
  H16      1.0000 0.42230  0.48640  0.13290  Biso   1.000  H 
  C31      1.0000 0.51860  0.57720  0.09110  Biso   1.000  C 
  C32      1.0000 0.40210  0.56540  0.04060  Biso   1.000  C 
  C33      1.0000 0.28010  0.49670  0.03220  Biso   1.000  C 
  H17      1.0000 0.26860  0.46100  0.06320  Biso   1.000  H 
  C34      1.0000 0.16660  0.47090  0.98260  Biso   1.000  C 
  H18      1.0000 0.09380  0.41690  0.97640  Biso   1.000  H 
  C35      1.0000 0.17650  0.53440  0.94490  Biso   1.000  C 
  C36      1.0000 0.04540  0.50470  0.89190  Biso   1.000  C 
  O12      1.0000 0.95250  0.42450  0.87900  Biso   1.000  O 
  O13      1.0000 0.06290  0.58470  0.86815  Biso   1.000  O 
  Cu6      1.0000 0.93344  0.58657  0.79864  Biso   1.000  Cu
  C37      1.0000 0.84370  0.52040  0.67870  Biso   1.000  C 
  O14      1.0000 0.94540  0.49290  0.68627  Biso   1.000  O 
  O15      1.0000 0.81160  0.57220  0.71906  Biso   1.000  O 
  O16      1.0000 0.81820  0.67890  0.85280  Biso   1.000  O 
  H19      1.0000 0.82921  0.73236  0.83267  Biso   1.000  H 
  H20      1.0000 0.86050  0.69791  0.89756  Biso   1.000  H 
  O17      1.0000 0.79820  0.47350  0.81057  Biso   1.000  O 
  H21      1.0000 0.82828  0.45720  0.85070  Biso   1.000  H 
  H22      1.0000 0.70335  0.48033  0.81225  Biso   1.000  H 
  O18      1.0000 0.08080  0.69030  0.77770  Biso   1.000  O 
  H23      1.0000 0.11590  0.67175  0.73768  Biso   1.000  H 
  H24      1.0000 0.16004  0.71233  0.81224  Biso   1.000  H 
  C38      1.0000 0.29490  0.60860  0.94750  Biso   1.000  C 
  H25      1.0000 0.29610  0.64870  0.92020  Biso   1.000  H 
  C39      1.0000 0.43020  0.62510  0.99810  Biso   1.000  C 
  H26      1.0000 0.51640  0.66900  0.99880  Biso   1.000  H 
  H27      1.0000 0.60470  0.62030  0.09020  Biso   1.000  H 
  C40      1.0000 0.75120  0.59580  0.19200  Biso   1.000  C 
  H28      1.0000 0.78120  0.62470  0.15860  Biso   1.000  H 
  C41      1.0000 0.84500  0.60530  0.24490  Biso   1.000  C 
  H29      1.0000 0.93850  0.63950  0.24510  Biso   1.000  H 
  O19      1.0000 0.05460  0.50710  0.31373  Biso   1.000  O 
  O20      1.0000 0.08330  0.70790  0.34860  Biso   1.000  O 
  C42      1.0000 0.15350  0.71600  0.40150  Biso   1.000  C 
  O21      1.0000 0.10760  0.66022  0.43670  Biso   1.000  O 
  C43      1.0000 0.29210  0.78910  0.41940  Biso   1.000  C 
  C44      1.0000 0.36720  0.80160  0.47740  Biso   1.000  C 
  C45      1.0000 0.50030  0.86740  0.49190  Biso   1.000  C 
  H30      1.0000 0.55230  0.87530  0.53090  Biso   1.000  H 
  C46      1.0000 0.55390  0.92050  0.44810  Biso   1.000  C 
  C47      1.0000 0.47880  0.90570  0.39100  Biso   1.000  C 
  H31      1.0000 0.51640  0.93970  0.36100  Biso   1.000  H 
  C48      1.0000 0.34660  0.84100  0.37570  Biso   1.000  C 
  H32      1.0000 0.29590  0.83300  0.33640  Biso   1.000  H 
  C49      1.0000 0.69600  0.98820  0.46030  Biso   1.000  C 
  H33      1.0000 0.72770  0.01460  0.42610  Biso   1.000  H 
  C50      1.0000 0.78010  0.01510  0.51080  Biso   1.000  C 
  C51      1.0000 0.92250  0.08190  0.51730  Biso   1.000  C 
  C52      1.0000 0.00530  0.10750  0.57390  Biso   1.000  C 
  C53      1.0000 0.13840  0.16870  0.57890  Biso   1.000  C 
  H34      1.0000 0.19230  0.18540  0.61810  Biso   1.000  H 
  N4       1.0000 0.19370  0.20470  0.53150  Biso   1.000  N 
  C54      1.0000 0.11430  0.18090  0.47730  Biso   1.000  C 
  H35      1.0000 0.15020  0.20570  0.44300  Biso   1.000  H 
  C55      1.0000 0.97930  0.12050  0.46850  Biso   1.000  C 
  H36      1.0000 0.92690  0.10600  0.42900  Biso   1.000  H 
  H37      1.0000 0.97210  0.08390  0.60900  Biso   1.000  H 
  H38      1.0000 0.75040  0.99140  0.54630  Biso   1.000  H 
  H39      1.0000 0.33020  0.76670  0.50700  Biso   1.000  H 
  O22      1.0000 0.75480  0.60640  0.44147  Biso   1.000  O 
  H40      1.0000 0.87960  0.57230  0.56850  Biso   1.000  H 
  C56      1.0000 0.55510  0.36170  0.65480  Biso   1.000  C 
  O23      1.0000 0.61620  0.37150  0.70805  Biso   1.000  O 
  O24      1.0000 0.43460  0.30400  0.63315  Biso   1.000  O 
  C57      1.0000 0.27990  0.50650  0.49554  Biso   1.000  C 
  C58      1.0000 0.40690  0.57620  0.50090  Biso   1.000  C 
  C59      1.0000 0.50800  0.62280  0.55920  Biso   1.000  C 
  O25      1.0000 0.48680  0.59740  0.60918  Biso   1.000  O 
  O26      1.0000 0.61150  0.68848  0.54975  Biso   1.000  O 
  N5       1.0000 0.44740  0.60980  0.44987  Biso   1.000  N 
  C60      1.0000 0.20380  0.47520  0.43640  Biso   1.000  C 
  H41      1.0000 0.12040  0.42770  0.43150  Biso   1.000  H 
  O27      1.0000 0.91670  0.29210  0.65140  Biso   1.000  O 
  C61      1.0000 0.84650  0.28400  0.59850  Biso   1.000  C 
  O28      1.0000 0.89240  0.33978  0.56330  Biso   1.000  O 
  C62      1.0000 0.70790  0.21090  0.58060  Biso   1.000  C 
  C63      1.0000 0.63280  0.19840  0.52260  Biso   1.000  C 
  H42      1.0000 0.66980  0.23330  0.49300  Biso   1.000  H 
  C64      1.0000 0.49970  0.13260  0.50810  Biso   1.000  C 
  H43      1.0000 0.44770  0.12470  0.46910  Biso   1.000  H 
  C65      1.0000 0.44610  0.07950  0.55190  Biso   1.000  C 
  C66      1.0000 0.52120  0.09430  0.60900  Biso   1.000  C 
  C67      1.0000 0.65340  0.15900  0.62430  Biso   1.000  C 
  H44      1.0000 0.70410  0.16700  0.66360  Biso   1.000  H 
  H45      1.0000 0.48360  0.06030  0.63900  Biso   1.000  H 
  C68      1.0000 0.30400  0.01180  0.53970  Biso   1.000  C 
  C69      1.0000 0.21990  0.98490  0.48920  Biso   1.000  C 
  H46      1.0000 0.24960  0.00860  0.45370  Biso   1.000  H 
  C70      1.0000 0.07750  0.91810  0.48270  Biso   1.000  C 
  C71      1.0000 0.02070  0.87950  0.53150  Biso   1.000  C 
  H47      1.0000 0.07310  0.89400  0.57100  Biso   1.000  H 
  C72      1.0000 0.88570  0.81910  0.52270  Biso   1.000  C 
  H48      1.0000 0.84980  0.79430  0.55700  Biso   1.000  H 
  N6       1.0000 0.80630  0.79530  0.46850  Biso   1.000  N 
  C73      1.0000 0.86160  0.83130  0.42110  Biso   1.000  C 
  H49      1.0000 0.80770  0.81460  0.38190  Biso   1.000  H 
  C74      1.0000 0.99470  0.89250  0.42610  Biso   1.000  C 
  H50      1.0000 0.02790  0.91610  0.39100  Biso   1.000  H 
  H51      1.0000 0.27230  0.98540  0.57390  Biso   1.000  H 
  H52      1.0000 0.51360  0.53110  0.76010  Biso   1.000  H 
  O29      1.0000 0.91920  0.30970  0.22230  Biso   1.000  O 
  H53      1.0000 0.83996  0.28767  0.18776  Biso   1.000  H 
  H54      1.0000 0.88410  0.32826  0.26232  Biso   1.000  H 
  O30      1.0000 0.38380  0.62850  0.29195  Biso   1.000  O 
