data_image0
_cell_length_a       8.099
_cell_length_b       13.9847
_cell_length_c       17.1334
_cell_angle_alpha    90.273
_cell_angle_beta     97.683
_cell_angle_gamma    94.015

_symmetry_space_group_name_H-M    "P 1"
_symmetry_int_tables_number       1

loop_
  _symmetry_equiv_pos_as_xyz
  'x, y, z'

loop_
  _atom_site_label
  _atom_site_occupancy
  _atom_site_fract_x
  _atom_site_fract_y
  _atom_site_fract_z
  _atom_site_thermal_displace_type
  _atom_site_B_iso_or_equiv
  _atom_site_type_symbol
  C1       1.0000 0.54010  0.90300  0.62460  Biso   1.000  C 
  H1       1.0000 0.48000  0.88150  0.66810  Biso   1.000  H 
  H2       1.0000 0.46420  0.89700  0.57500  Biso   1.000  H 
  H3       1.0000 0.58200  0.97010  0.63360  Biso   1.000  H 
  S1       1.0000 0.71249  0.83012  0.61948  Biso   1.000  S 
  Cu1      1.0000 0.93123  0.89084  0.70752  Biso   1.000  Cu
  Br1      1.0000 0.89186  0.90124  0.84782  Biso   1.000  Br
  Cu2      1.0000 0.17933  0.87296  0.81957  Biso   1.000  Cu
  Br2      1.0000 0.15276  0.78338  0.69073  Biso   1.000  Br
  S2       1.0000 0.30727  0.01736  0.78827  Biso   1.000  S 
  C2       1.0000 0.13640  0.09650  0.77020  Biso   1.000  C 
  H4       1.0000 0.18230  0.16130  0.75790  Biso   1.000  H 
  H5       1.0000 0.08320  0.10170  0.81860  Biso   1.000  H 
  S3       1.0000 0.97931  0.05386  0.68965  Biso   1.000  S 
  C3       1.0000 0.07780  0.08470  0.60510  Biso   1.000  C 
  C4       1.0000 0.04640  0.17200  0.57020  Biso   1.000  C 
  C5       1.0000 0.11290  0.19670  0.50160  Biso   1.000  C 
  H6       1.0000 0.09040  0.25590  0.47670  Biso   1.000  H 
  C6       1.0000 0.21270  0.13370  0.46980  Biso   1.000  C 
  S4       1.0000 0.28751  0.16988  0.38052  Biso   1.000  S 
  Cu3      1.0000 0.06877  0.10916  0.29248  Biso   1.000  Cu
  Br3      1.0000 0.10814  0.09876  0.15218  Biso   1.000  Br
  Cu4      1.0000 0.82067  0.12704  0.18043  Biso   1.000  Cu
  Br4      1.0000 0.84724  0.21662  0.30927  Biso   1.000  Br
  S5       1.0000 0.69273  0.98264  0.21173  Biso   1.000  S 
  C7       1.0000 0.86360  0.90350  0.22980  Biso   1.000  C 
  H7       1.0000 0.91680  0.89830  0.18140  Biso   1.000  H 
  H8       1.0000 0.81770  0.83870  0.24210  Biso   1.000  H 
  S6       1.0000 0.02069  0.94614  0.31035  Biso   1.000  S 
  C8       1.0000 0.92220  0.91530  0.39490  Biso   1.000  C 
  C9       1.0000 0.95360  0.82800  0.42980  Biso   1.000  C 
  C10      1.0000 0.88710  0.80330  0.49840  Biso   1.000  C 
  H9       1.0000 0.90960  0.74410  0.52330  Biso   1.000  H 
  C11      1.0000 0.78730  0.86630  0.53020  Biso   1.000  C 
  C12      1.0000 0.75540  0.95310  0.49530  Biso   1.000  C 
  C13      1.0000 0.82480  0.97810  0.42670  Biso   1.000  C 
  H10      1.0000 0.80480  0.03790  0.40240  Biso   1.000  H 
  H11      1.0000 0.68710  0.99560  0.51750  Biso   1.000  H 
  H12      1.0000 0.02020  0.78520  0.40700  Biso   1.000  H 
  C14      1.0000 0.58390  0.92750  0.12380  Biso   1.000  C 
  C15      1.0000 0.41980  0.89180  0.12270  Biso   1.000  C 
  H13      1.0000 0.36450  0.89860  0.16770  Biso   1.000  H 
  C16      1.0000 0.33670  0.84610  0.05500  Biso   1.000  C 
  H14      1.0000 0.22390  0.82180  0.05380  Biso   1.000  H 
  C17      1.0000 0.41670  0.83550  0.98920  Biso   1.000  C 
  S7       1.0000 0.30226  0.77050  0.90761  Biso   1.000  S 
  C18      1.0000 0.46080  0.72220  0.85800  Biso   1.000  C 
  H15      1.0000 0.53430  0.77480  0.84160  Biso   1.000  H 
  H16      1.0000 0.40800  0.68500  0.81160  Biso   1.000  H 
  H17      1.0000 0.52660  0.68060  0.89390  Biso   1.000  H 
  C19      1.0000 0.58100  0.87450  0.99000  Biso   1.000  C 
  H18      1.0000 0.63550  0.86900  0.94450  Biso   1.000  H 
  C20      1.0000 0.66340  0.92080  0.05630  Biso   1.000  C 
  H19      1.0000 0.77410  0.94830  0.05650  Biso   1.000  H 
  S8       1.0000 0.69774  0.22950  0.09239  Biso   1.000  S 
  C21      1.0000 0.58330  0.16450  0.01080  Biso   1.000  C 
  C22      1.0000 0.41900  0.12550  0.01000  Biso   1.000  C 
  H20      1.0000 0.36450  0.13100  0.05550  Biso   1.000  H 
  C23      1.0000 0.33660  0.07920  0.94370  Biso   1.000  C 
  H21      1.0000 0.22590  0.05170  0.94350  Biso   1.000  H 
  C24      1.0000 0.41610  0.07250  0.87620  Biso   1.000  C 
  C25      1.0000 0.58020  0.10820  0.87730  Biso   1.000  C 
  H22      1.0000 0.63550  0.10140  0.83230  Biso   1.000  H 
  C26      1.0000 0.66330  0.15390  0.94500  Biso   1.000  C 
  H23      1.0000 0.77610  0.17820  0.94620  Biso   1.000  H 
  C27      1.0000 0.53920  0.27780  0.14200  Biso   1.000  C 
  H24      1.0000 0.46570  0.22520  0.15840  Biso   1.000  H 
  H25      1.0000 0.47340  0.31940  0.10610  Biso   1.000  H 
  H26      1.0000 0.59200  0.31500  0.18840  Biso   1.000  H 
  C28      1.0000 0.45990  0.09700  0.37540  Biso   1.000  C 
  H27      1.0000 0.53580  0.10300  0.42500  Biso   1.000  H 
  H28      1.0000 0.41800  0.02990  0.36640  Biso   1.000  H 
  H29      1.0000 0.52000  0.11850  0.33190  Biso   1.000  H 
  C29      1.0000 0.24460  0.04690  0.50470  Biso   1.000  C 
  H30      1.0000 0.31290  0.00440  0.48250  Biso   1.000  H 
  C30      1.0000 0.17520  0.02190  0.57330  Biso   1.000  C 
  H31      1.0000 0.19520  0.96210  0.59760  Biso   1.000  H 
  H32      1.0000 0.97980  0.21480  0.59300  Biso   1.000  H 
