data_image0
_cell_length_a       15.5154
_cell_length_b       15.7338
_cell_length_c       20.8191
_cell_angle_alpha    104.202
_cell_angle_beta     90.058
_cell_angle_gamma    92.231

_symmetry_space_group_name_H-M    "P 1"
_symmetry_int_tables_number       1

loop_
  _symmetry_equiv_pos_as_xyz
  'x, y, z'

loop_
  _atom_site_label
  _atom_site_occupancy
  _atom_site_fract_x
  _atom_site_fract_y
  _atom_site_fract_z
  _atom_site_thermal_displace_type
  _atom_site_B_iso_or_equiv
  _atom_site_type_symbol
  Zn1      1.0000 0.83845  0.61152  0.95253  Biso   1.000  Zn
  N1       1.0000 0.83278  0.48158  0.94664  Biso   1.000  N 
  C1       1.0000 0.87540  0.45200  0.99171  Biso   1.000  C 
  C2       1.0000 0.87060  0.36540  0.99383  Biso   1.000  C 
  C3       1.0000 0.82130  0.30720  0.94710  Biso   1.000  C 
  N2       1.0000 0.81300  0.21507  0.94278  Biso   1.000  N 
  N3       1.0000 0.84790  0.19650  0.99010  Biso   1.000  N 
  C4       1.0000 0.84290  0.10430  0.98670  Biso   1.000  C 
  C5       1.0000 0.77840  0.05680  0.96930  Biso   1.000  C 
  H1       1.0000 0.72860  0.08110  0.95550  Biso   1.000  H 
  C6       1.0000 0.77570  0.96780  0.96920  Biso   1.000  C 
  H2       1.0000 0.72420  0.93360  0.95500  Biso   1.000  H 
  N4       1.0000 0.84020  0.93038  0.98764  Biso   1.000  N 
  C7       1.0000 0.91180  0.98040  0.00630  Biso   1.000  C 
  H3       1.0000 0.96120  0.95430  0.01880  Biso   1.000  H 
  C8       1.0000 0.91650  0.06990  0.00790  Biso   1.000  C 
  H4       1.0000 0.96700  0.10550  0.02270  Biso   1.000  H 
  Zn2      1.0000 0.83916  0.80107  0.98303  Biso   1.000  Zn
  O1       1.0000 0.93529  0.77248  0.91578  Biso   1.000  O 
  C9       1.0000 0.96270  0.70140  0.88620  Biso   1.000  C 
  O2       1.0000 0.94353  0.62977  0.89842  Biso   1.000  O 
  C10      1.0000 0.02140  0.70140  0.82887  Biso   1.000  C 
  C11      1.0000 0.05010  0.62760  0.78850  Biso   1.000  C 
  H5       1.0000 0.03650  0.57320  0.79880  Biso   1.000  H 
  C12      1.0000 0.09950  0.62740  0.73160  Biso   1.000  C 
  H6       1.0000 0.11890  0.57350  0.70510  Biso   1.000  H 
  C13      1.0000 0.11950  0.70320  0.71457  Biso   1.000  C 
  C14      1.0000 0.09630  0.78010  0.75760  Biso   1.000  C 
  C15      1.0000 0.04790  0.78010  0.81300  Biso   1.000  C 
  F1       1.0000 0.03110  0.86300  0.85000  Biso   1.000  F 
  H7       1.0000 0.11420  0.83450  0.74880  Biso   1.000  H 
  C16      1.0000 0.16580  0.70600  0.65258  Biso   1.000  C 
  C17      1.0000 0.15510  0.77810  0.62400  Biso   1.000  C 
  C18      1.0000 0.19620  0.78030  0.56530  Biso   1.000  C 
  H8       1.0000 0.18950  0.82820  0.54570  Biso   1.000  H 
  C19      1.0000 0.25030  0.70740  0.53380  Biso   1.000  C 
  C20      1.0000 0.26330  0.64700  0.56520  Biso   1.000  C 
  H9       1.0000 0.30360  0.60370  0.54730  Biso   1.000  H 
  C21      1.0000 0.22090  0.64200  0.62450  Biso   1.000  C 
  H10      1.0000 0.23060  0.59490  0.64440  Biso   1.000  H 
  C22      1.0000 0.29630  0.70790  0.47060  Biso   1.000  C 
  C23      1.0000 0.24070  0.71600  0.41360  Biso   1.000  C 
  C24      1.0000 0.16340  0.68130  0.40330  Biso   1.000  C 
  H11      1.0000 0.14020  0.65270  0.43510  Biso   1.000  H 
  C25      1.0000 0.11220  0.68300  0.34880  Biso   1.000  C 
  H12      1.0000 0.05670  0.65440  0.34420  Biso   1.000  H 
  C26      1.0000 0.13830  0.72260  0.30400  Biso   1.000  C 
  C27      1.0000 0.08480  0.72680  0.24600  Biso   1.000  C 
  C28      1.0000 0.04550  0.64810  0.20780  Biso   1.000  C 
  H13      1.0000 0.05190  0.59470  0.22050  Biso   1.000  H 
  C29      1.0000 0.99770  0.64890  0.15190  Biso   1.000  C 
  H14      1.0000 0.97110  0.59560  0.12690  Biso   1.000  H 
  C30      1.0000 0.98730  0.72500  0.13120  Biso   1.000  C 
  C31      1.0000 0.93680  0.72450  0.06975  Biso   1.000  C 
  O3       1.0000 0.91160  0.65088  0.03593  Biso   1.000  O 
  O4       1.0000 0.92250  0.79516  0.05662  Biso   1.000  O 
  C32      1.0000 0.02740  0.80240  0.17023  Biso   1.000  C 
  F2       1.0000 0.02440  0.87960  0.15490  Biso   1.000  F 
  C33      1.0000 0.07530  0.80370  0.22600  Biso   1.000  C 
  H15      1.0000 0.10190  0.85710  0.25070  Biso   1.000  H 
  C34      1.0000 0.20660  0.79450  0.32650  Biso   1.000  C 
  H16      1.0000 0.21460  0.84070  0.30480  Biso   1.000  H 
  C35      1.0000 0.25800  0.78990  0.38100  Biso   1.000  C 
  H17      1.0000 0.30290  0.83280  0.39680  Biso   1.000  H 
  C36      1.0000 0.38210  0.70130  0.46460  Biso   1.000  C 
  C37      1.0000 0.42940  0.70060  0.40260  Biso   1.000  C 
  C38      1.0000 0.40590  0.65130  0.34470  Biso   1.000  C 
  H18      1.0000 0.35590  0.61370  0.34180  Biso   1.000  H 
  C39      1.0000 0.45100  0.65150  0.28710  Biso   1.000  C 
  H19      1.0000 0.43280  0.61100  0.24720  Biso   1.000  H 
  C40      1.0000 0.51900  0.70630  0.28510  Biso   1.000  C 
  C41      1.0000 0.56500  0.70860  0.22410  Biso   1.000  C 
  C42      1.0000 0.58820  0.63200  0.18050  Biso   1.000  C 
  H20      1.0000 0.57290  0.57690  0.18920  Biso   1.000  H 
  C43      1.0000 0.63400  0.63570  0.12410  Biso   1.000  C 
  F3       1.0000 0.63510  0.55590  0.07780  Biso   1.000  F 
  C44      1.0000 0.65980  0.71260  0.10819  Biso   1.000  C 
  C45      1.0000 0.71620  0.71500  0.05107  Biso   1.000  C 
  O5       1.0000 0.73431  0.64390  0.01278  Biso   1.000  O 
  O6       1.0000 0.74368  0.78868  0.04607  Biso   1.000  O 
  C46      1.0000 0.62800  0.78700  0.15050  Biso   1.000  C 
  H21      1.0000 0.63940  0.84200  0.14040  Biso   1.000  H 
  C47      1.0000 0.58190  0.78580  0.20530  Biso   1.000  C 
  H22      1.0000 0.56060  0.83900  0.23140  Biso   1.000  H 
  C48      1.0000 0.54000  0.77270  0.34550  Biso   1.000  C 
  H23      1.0000 0.58340  0.81710  0.34560  Biso   1.000  H 
  C49      1.0000 0.49550  0.77060  0.40350  Biso   1.000  C 
  H24      1.0000 0.50780  0.81410  0.44320  Biso   1.000  H 
  C50      1.0000 0.43640  0.69710  0.52290  Biso   1.000  C 
  C51      1.0000 0.44060  0.77530  0.58120  Biso   1.000  C 
  H25      1.0000 0.40950  0.82610  0.58110  Biso   1.000  H 
  C52      1.0000 0.49110  0.77110  0.63520  Biso   1.000  C 
  H26      1.0000 0.49620  0.81940  0.67300  Biso   1.000  H 
  C53      1.0000 0.53810  0.68770  0.63270  Biso   1.000  C 
  C54      1.0000 0.54350  0.63590  0.57450  Biso   1.000  C 
  H27      1.0000 0.58480  0.59170  0.56800  Biso   1.000  H 
  C55      1.0000 0.49260  0.64070  0.52040  Biso   1.000  C 
  H28      1.0000 0.50070  0.59930  0.47940  Biso   1.000  H 
  C56      1.0000 0.58970  0.68580  0.69150  Biso   1.000  C 
  C57      1.0000 0.60210  0.60680  0.70990  Biso   1.000  C 
  H29      1.0000 0.57830  0.55280  0.68380  Biso   1.000  H 
  C58      1.0000 0.64940  0.60890  0.76630  Biso   1.000  C 
  F4       1.0000 0.65530  0.53010  0.78260  Biso   1.000  F 
  C59      1.0000 0.68550  0.68430  0.80658  Biso   1.000  C 
  C60      1.0000 0.67190  0.76110  0.78790  Biso   1.000  C 
  C61      1.0000 0.62590  0.76140  0.73110  Biso   1.000  C 
  H30      1.0000 0.61930  0.81530  0.71920  Biso   1.000  H 
  H31      1.0000 0.69460  0.81500  0.81480  Biso   1.000  H 
  C62      1.0000 0.73850  0.68710  0.86734  Biso   1.000  C 
  O7       1.0000 0.76490  0.61650  0.87496  Biso   1.000  O 
  O8       1.0000 0.75542  0.76020  0.90440  Biso   1.000  O 
  H32      1.0000 0.11980  0.82480  0.64500  Biso   1.000  H 
  C63      1.0000 0.77710  0.33660  0.89900  Biso   1.000  C 
  H33      1.0000 0.74320  0.29710  0.86590  Biso   1.000  H 
  C64      1.0000 0.78410  0.42500  0.90102  Biso   1.000  C 
  H34      1.0000 0.75350  0.44640  0.86910  Biso   1.000  H 
  H35      1.0000 0.90080  0.34630  0.02710  Biso   1.000  H 
  H36      1.0000 0.91040  0.49220  0.02360  Biso   1.000  H 
