data_image0
_cell_length_a       11.1732
_cell_length_b       17.6292
_cell_length_c       8.56987
_cell_angle_alpha    90
_cell_angle_beta     115.416
_cell_angle_gamma    90

_symmetry_space_group_name_H-M    "P 1"
_symmetry_int_tables_number       1

loop_
  _symmetry_equiv_pos_as_xyz
  'x, y, z'

loop_
  _atom_site_label
  _atom_site_occupancy
  _atom_site_fract_x
  _atom_site_fract_y
  _atom_site_fract_z
  _atom_site_thermal_displace_type
  _atom_site_B_iso_or_equiv
  _atom_site_type_symbol
  Gd1      1.0000 0.56410  0.79498  0.69998  Biso   1.000  Gd
  O1       1.0000 0.64160  0.64650  0.72550  Biso   1.000  O 
  P1       1.0000 0.70830  0.60750  0.90260  Biso   1.000  P 
  O2       1.0000 0.73440  0.52350  0.87860  Biso   1.000  O 
  C1       1.0000 0.59720  0.61150  0.00600  Biso   1.000  C 
  H1       1.0000 0.50064  0.61774  0.89671  Biso   1.000  H 
  N1       1.0000 0.58400  0.66020  0.14140  Biso   1.000  N 
  H2       1.0000 0.53437  0.70718  0.07797  Biso   1.000  H 
  C2       1.0000 0.49740  0.62440  0.21450  Biso   1.000  C 
  H3       1.0000 0.42718  0.58444  0.12468  Biso   1.000  H 
  H4       1.0000 0.55502  0.59607  0.33701  Biso   1.000  H 
  P2       1.0000 0.41640  0.70900  0.24160  Biso   1.000  P 
  O3       1.0000 0.28270  0.68510  0.23590  Biso   1.000  O 
  Gd2      1.0000 0.06410  0.70502  0.19998  Biso   1.000  Gd
  O4       1.0000 0.06620  0.58250  0.34630  Biso   1.000  O 
  H5       1.0000 0.02283  0.54266  0.25799  Biso   1.000  H 
  H6       1.0000 0.15919  0.56751  0.42034  Biso   1.000  H 
  O5       1.0000 0.16950  0.71030  0.51910  Biso   1.000  O 
  P3       1.0000 0.25420  0.72060  0.71400  Biso   1.000  P 
  O6       1.0000 0.22230  0.65760  0.81520  Biso   1.000  O 
  C3       1.0000 0.21330  0.81140  0.77640  Biso   1.000  C 
  H7       1.0000 0.20586  0.80526  0.89837  Biso   1.000  H 
  N2       1.0000 0.08400  0.83980  0.64140  Biso   1.000  N 
  H8       1.0000 0.03437  0.79282  0.57797  Biso   1.000  H 
  C4       1.0000 0.99740  0.87560  0.71450  Biso   1.000  C 
  H9       1.0000 0.92718  0.91556  0.62468  Biso   1.000  H 
  H10      1.0000 0.05502  0.90393  0.83701  Biso   1.000  H 
  P4       1.0000 0.91640  0.79100  0.74160  Biso   1.000  P 
  O7       1.0000 0.78270  0.81490  0.73590  Biso   1.000  O 
  O8       1.0000 0.89730  0.73550  0.59400  Biso   1.000  O 
  O9       1.0000 0.00670  0.75600  0.91660  Biso   1.000  O 
  C5       1.0000 0.09720  0.88850  0.50600  Biso   1.000  C 
  H11      1.0000 0.00064  0.88226  0.39671  Biso   1.000  H 
  H12      1.0000 0.10592  0.94525  0.56003  Biso   1.000  H 
  P5       1.0000 0.20830  0.89250  0.40260  Biso   1.000  P 
  O10      1.0000 0.33600  0.85100  0.52040  Biso   1.000  O 
  O11      1.0000 0.14160  0.85350  0.22550  Biso   1.000  O 
  O12      1.0000 0.23440  0.97650  0.37860  Biso   1.000  O 
  H13      1.0000 0.29104  0.85203  0.79196  Biso   1.000  H 
  O13      1.0000 0.40200  0.72040  0.75620  Biso   1.000  O 
  O14      1.0000 0.90200  0.77960  0.25620  Biso   1.000  O 
  P6       1.0000 0.75420  0.77940  0.21400  Biso   1.000  P 
  C6       1.0000 0.71330  0.68860  0.27640  Biso   1.000  C 
  H14      1.0000 0.79104  0.64797  0.29196  Biso   1.000  H 
  H15      1.0000 0.70586  0.69474  0.39837  Biso   1.000  H 
  O15      1.0000 0.66950  0.78970  0.01910  Biso   1.000  O 
  O16      1.0000 0.72230  0.84240  0.31520  Biso   1.000  O 
  O17      1.0000 0.83600  0.64900  0.02040  Biso   1.000  O 
  O18      1.0000 0.11220  0.60760  0.02620  Biso   1.000  O 
  H16      1.0000 0.05761  0.61753  0.90144  Biso   1.000  H 
  H17      1.0000 0.20757  0.60967  0.05135  Biso   1.000  H 
  O19      1.0000 0.50670  0.74400  0.41660  Biso   1.000  O 
  O20      1.0000 0.39730  0.76450  0.09400  Biso   1.000  O 
  H18      1.0000 0.60592  0.55475  0.06003  Biso   1.000  H 
  O21      1.0000 0.56620  0.91750  0.84630  Biso   1.000  O 
  H19      1.0000 0.52283  0.95734  0.75799  Biso   1.000  H 
  H20      1.0000 0.65919  0.93249  0.92034  Biso   1.000  H 
  O22      1.0000 0.61220  0.89240  0.52620  Biso   1.000  O 
  H21      1.0000 0.70757  0.89033  0.55135  Biso   1.000  H 
  H22      1.0000 0.55761  0.88247  0.40144  Biso   1.000  H 
