data_image0
_cell_length_a       12.004
_cell_length_b       16.188
_cell_length_c       19.74
_cell_angle_alpha    90
_cell_angle_beta     103.72
_cell_angle_gamma    90

_symmetry_space_group_name_H-M    "P 1"
_symmetry_int_tables_number       1

loop_
  _symmetry_equiv_pos_as_xyz
  'x, y, z'

loop_
  _atom_site_label
  _atom_site_occupancy
  _atom_site_fract_x
  _atom_site_fract_y
  _atom_site_fract_z
  _atom_site_thermal_displace_type
  _atom_site_B_iso_or_equiv
  _atom_site_type_symbol
  Zn1      1.0000 0.40232  0.07180  0.04054  Biso   1.000  Zn
  N1       1.0000 0.27250  0.14850  0.06680  Biso   1.000  N 
  C1       1.0000 0.17950  0.12260  0.09110  Biso   1.000  C 
  H1       1.0000 0.16680  0.06640  0.09540  Biso   1.000  H 
  C2       1.0000 0.10230  0.18090  0.10960  Biso   1.000  C 
  H2       1.0000 0.04000  0.16330  0.12620  Biso   1.000  H 
  C3       1.0000 0.12130  0.25920  0.10280  Biso   1.000  C 
  H3       1.0000 0.07110  0.29680  0.11520  Biso   1.000  H 
  C4       1.0000 0.21490  0.29080  0.07720  Biso   1.000  C 
  C5       1.0000 0.24230  0.37980  0.06170  Biso   1.000  C 
  H4       1.0000 0.19430  0.42160  0.07030  Biso   1.000  H 
  C6       1.0000 0.34040  0.40200  0.03420  Biso   1.000  C 
  H5       1.0000 0.35730  0.45730  0.02870  Biso   1.000  H 
  C7       1.0000 0.41150  0.33800  0.01540  Biso   1.000  C 
  C8       1.0000 0.38610  0.25510  0.02550  Biso   1.000  C 
  N2       1.0000 0.44810  0.19230  0.01340  Biso   1.000  N 
  C9       1.0000 0.54340  0.21580  0.98500  Biso   1.000  C 
  H6       1.0000 0.59210  0.17470  0.97600  Biso   1.000  H 
  C10      1.0000 0.56440  0.29250  0.97110  Biso   1.000  C 
  C11      1.0000 0.50150  0.35340  0.98690  Biso   1.000  C 
  H7       1.0000 0.51930  0.40770  0.97820  Biso   1.000  H 
  H8       1.0000 0.62410  0.30430  0.95000  Biso   1.000  H 
  C12      1.0000 0.28610  0.22820  0.05990  Biso   1.000  C 
  N3       1.0000 0.49490  0.04390  0.13890  Biso   1.000  N 
  C13      1.0000 0.55350  0.09080  0.19170  Biso   1.000  C 
  C14      1.0000 0.55020  0.18320  0.18810  Biso   1.000  C 
  C15      1.0000 0.63670  0.22570  0.16360  Biso   1.000  C 
  C16      1.0000 0.71120  0.18310  0.13700  Biso   1.000  C 
  H9       1.0000 0.70950  0.12570  0.13470  Biso   1.000  H 
  C17      1.0000 0.79080  0.22900  0.11320  Biso   1.000  C 
  H10      1.0000 0.84380  0.20140  0.09380  Biso   1.000  H 
  C18      1.0000 0.79520  0.31400  0.11690  Biso   1.000  C 
  H11      1.0000 0.85320  0.34100  0.10170  Biso   1.000  H 
  C19      1.0000 0.72360  0.35750  0.14010  Biso   1.000  C 
  H12      1.0000 0.72540  0.41490  0.13920  Biso   1.000  H 
  C20      1.0000 0.63650  0.31160  0.16900  Biso   1.000  C 
  C21      1.0000 0.56100  0.35430  0.19260  Biso   1.000  C 
  C22      1.0000 0.53080  0.44530  0.18880  Biso   1.000  C 
  H13      1.0000 0.45887  0.44530  0.21361  Biso   1.000  H 
  H14      1.0000 0.49905  0.45301  0.13273  Biso   1.000  H 
  N4       1.0000 0.56990  0.51280  0.20480  Biso   1.000  N 
  H15      1.0000 0.63602  0.52328  0.18202  Biso   1.000  H 
  H16      1.0000 0.50813  0.55604  0.18848  Biso   1.000  H 
  C23      1.0000 0.46550  0.31580  0.21970  Biso   1.000  C 
  C24      1.0000 0.38160  0.35290  0.24290  Biso   1.000  C 
  H17      1.0000 0.37560  0.41000  0.23820  Biso   1.000  H 
  C25      1.0000 0.30250  0.31310  0.27350  Biso   1.000  C 
  H18      1.0000 0.25020  0.34340  0.29140  Biso   1.000  H 
  C26      1.0000 0.30340  0.22360  0.27700  Biso   1.000  C 
  H19      1.0000 0.25230  0.19490  0.29710  Biso   1.000  H 
  C27      1.0000 0.38230  0.18320  0.24960  Biso   1.000  C 
  H20      1.0000 0.38090  0.12580  0.25050  Biso   1.000  H 
  C28      1.0000 0.47240  0.22340  0.21770  Biso   1.000  C 
  N5       1.0000 0.60470  0.04520  0.24420  Biso   1.000  N 
  Zn2      1.0000 0.69511  0.07157  0.34655  Biso   1.000  Zn
  N6       1.0000 0.65310  0.19290  0.37540  Biso   1.000  N 
  C29      1.0000 0.57470  0.21130  0.40100  Biso   1.000  C 
  H21      1.0000 0.53040  0.16930  0.41340  Biso   1.000  H 
  C30      1.0000 0.54540  0.30070  0.41400  Biso   1.000  C 
  H22      1.0000 0.48390  0.31450  0.43300  Biso   1.000  H 
  C31      1.0000 0.61610  0.36040  0.39570  Biso   1.000  C 
  H23      1.0000 0.60180  0.41570  0.40300  Biso   1.000  H 
  C32      1.0000 0.71020  0.33940  0.36610  Biso   1.000  C 
  C33      1.0000 0.78520  0.39790  0.34690  Biso   1.000  C 
  H24      1.0000 0.77370  0.45400  0.35290  Biso   1.000  H 
  C34      1.0000 0.86660  0.37500  0.32200  Biso   1.000  C 
  H25      1.0000 0.91290  0.41410  0.30750  Biso   1.000  H 
  C35      1.0000 0.88770  0.29340  0.31600  Biso   1.000  C 
  C36      1.0000 0.97730  0.27110  0.28970  Biso   1.000  C 
  H26      1.0000 0.02590  0.31010  0.27750  Biso   1.000  H 
  C37      1.0000 0.99340  0.18560  0.28160  Biso   1.000  C 
  H27      1.0000 0.05590  0.16600  0.26620  Biso   1.000  H 
  C38      1.0000 0.91490  0.13290  0.29710  Biso   1.000  C 
  H28      1.0000 0.92610  0.07700  0.29010  Biso   1.000  H 
  N7       1.0000 0.82810  0.15160  0.31990  Biso   1.000  N 
  C39      1.0000 0.81100  0.23560  0.33160  Biso   1.000  C 
  C40      1.0000 0.72310  0.25340  0.35450  Biso   1.000  C 
  N8       1.0000 0.56520  0.02170  0.38980  Biso   1.000  N 
  N9       1.0000 0.54840  0.00290  0.44210  Biso   1.000  N 
  N10      1.0000 0.53590  0.98140  0.49790  Biso   1.000  N 
  Zn3      1.0000 0.40232  0.92820  0.54054  Biso   1.000  Zn
  N11      1.0000 0.27250  0.85150  0.56680  Biso   1.000  N 
  C41      1.0000 0.28610  0.77180  0.55990  Biso   1.000  C 
  C42      1.0000 0.21490  0.70920  0.57720  Biso   1.000  C 
  C43      1.0000 0.24230  0.62020  0.56170  Biso   1.000  C 
  C44      1.0000 0.34040  0.59800  0.53420  Biso   1.000  C 
  H29      1.0000 0.35730  0.54270  0.52870  Biso   1.000  H 
  C45      1.0000 0.41150  0.66200  0.51540  Biso   1.000  C 
  C46      1.0000 0.50150  0.64660  0.48690  Biso   1.000  C 
  H30      1.0000 0.51930  0.59230  0.47820  Biso   1.000  H 
  C47      1.0000 0.56440  0.70750  0.47110  Biso   1.000  C 
  H31      1.0000 0.62410  0.69570  0.45000  Biso   1.000  H 
  C48      1.0000 0.54340  0.78420  0.48500  Biso   1.000  C 
  H32      1.0000 0.59210  0.82530  0.47600  Biso   1.000  H 
  N12      1.0000 0.44810  0.80770  0.51340  Biso   1.000  N 
  C49      1.0000 0.38610  0.74490  0.52550  Biso   1.000  C 
  H33      1.0000 0.19430  0.57840  0.57030  Biso   1.000  H 
  C50      1.0000 0.12130  0.74080  0.60280  Biso   1.000  C 
  H34      1.0000 0.07110  0.70320  0.61520  Biso   1.000  H 
  C51      1.0000 0.10230  0.81910  0.60960  Biso   1.000  C 
  H35      1.0000 0.04000  0.83670  0.62620  Biso   1.000  H 
  C52      1.0000 0.17950  0.87740  0.59110  Biso   1.000  C 
  H36      1.0000 0.16680  0.93360  0.59540  Biso   1.000  H 
  N13      1.0000 0.49490  0.95610  0.63890  Biso   1.000  N 
  C53      1.0000 0.55350  0.90920  0.69170  Biso   1.000  C 
  C54      1.0000 0.55020  0.81680  0.68810  Biso   1.000  C 
  C55      1.0000 0.63670  0.77430  0.66360  Biso   1.000  C 
  C56      1.0000 0.63650  0.68840  0.66900  Biso   1.000  C 
  C57      1.0000 0.72360  0.64250  0.64010  Biso   1.000  C 
  H37      1.0000 0.72540  0.58510  0.63920  Biso   1.000  H 
  C58      1.0000 0.79520  0.68600  0.61690  Biso   1.000  C 
  H38      1.0000 0.85320  0.65900  0.60170  Biso   1.000  H 
  C59      1.0000 0.79080  0.77100  0.61320  Biso   1.000  C 
  H39      1.0000 0.84380  0.79860  0.59380  Biso   1.000  H 
  C60      1.0000 0.71120  0.81690  0.63700  Biso   1.000  C 
  H40      1.0000 0.70950  0.87430  0.63470  Biso   1.000  H 
  C61      1.0000 0.56100  0.64570  0.69260  Biso   1.000  C 
  C62      1.0000 0.53080  0.55470  0.68880  Biso   1.000  C 
  N14      1.0000 0.56990  0.48720  0.70480  Biso   1.000  N 
  H41      1.0000 0.63602  0.47672  0.68202  Biso   1.000  H 
  H42      1.0000 0.50813  0.44396  0.68848  Biso   1.000  H 
  H43      1.0000 0.45887  0.55470  0.71361  Biso   1.000  H 
  H44      1.0000 0.49905  0.54699  0.63273  Biso   1.000  H 
  C63      1.0000 0.46550  0.68420  0.71970  Biso   1.000  C 
  C64      1.0000 0.38160  0.64710  0.74290  Biso   1.000  C 
  H45      1.0000 0.37560  0.59000  0.73820  Biso   1.000  H 
  C65      1.0000 0.30250  0.68690  0.77350  Biso   1.000  C 
  H46      1.0000 0.25020  0.65660  0.79140  Biso   1.000  H 
  C66      1.0000 0.30340  0.77640  0.77700  Biso   1.000  C 
  H47      1.0000 0.25230  0.80510  0.79710  Biso   1.000  H 
  C67      1.0000 0.38230  0.81680  0.74960  Biso   1.000  C 
  H48      1.0000 0.38090  0.87420  0.75050  Biso   1.000  H 
  C68      1.0000 0.47240  0.77660  0.71770  Biso   1.000  C 
  N15      1.0000 0.60470  0.95480  0.74420  Biso   1.000  N 
  Zn4      1.0000 0.69511  0.92843  0.84655  Biso   1.000  Zn
  N16      1.0000 0.65310  0.80710  0.87540  Biso   1.000  N 
  C69      1.0000 0.72310  0.74660  0.85450  Biso   1.000  C 
  C70      1.0000 0.71020  0.66060  0.86610  Biso   1.000  C 
  C71      1.0000 0.61610  0.63960  0.89570  Biso   1.000  C 
  H49      1.0000 0.60180  0.58430  0.90300  Biso   1.000  H 
  C72      1.0000 0.54540  0.69930  0.91400  Biso   1.000  C 
  H50      1.0000 0.48390  0.68550  0.93300  Biso   1.000  H 
  C73      1.0000 0.57470  0.78870  0.90100  Biso   1.000  C 
  H51      1.0000 0.53040  0.83070  0.91340  Biso   1.000  H 
  C74      1.0000 0.78520  0.60210  0.84690  Biso   1.000  C 
  H52      1.0000 0.77370  0.54600  0.85290  Biso   1.000  H 
  C75      1.0000 0.86660  0.62500  0.82200  Biso   1.000  C 
  H53      1.0000 0.91290  0.58590  0.80750  Biso   1.000  H 
  C76      1.0000 0.88770  0.70660  0.81600  Biso   1.000  C 
  C77      1.0000 0.97730  0.72890  0.78970  Biso   1.000  C 
  H54      1.0000 0.02590  0.68990  0.77750  Biso   1.000  H 
  C78      1.0000 0.99340  0.81440  0.78160  Biso   1.000  C 
  H55      1.0000 0.05590  0.83400  0.76620  Biso   1.000  H 
  C79      1.0000 0.91490  0.86710  0.79710  Biso   1.000  C 
  H56      1.0000 0.92610  0.92300  0.79010  Biso   1.000  H 
  N17      1.0000 0.82810  0.84840  0.81990  Biso   1.000  N 
  C80      1.0000 0.81100  0.76440  0.83160  Biso   1.000  C 
  N18      1.0000 0.56520  0.97830  0.88980  Biso   1.000  N 
  N19      1.0000 0.54840  0.99710  0.94210  Biso   1.000  N 
  N20      1.0000 0.53590  0.01860  0.99790  Biso   1.000  N 
  N21      1.0000 0.81240  0.01390  0.88270  Biso   1.000  N 
  N22      1.0000 0.79890  0.06980  0.91600  Biso   1.000  N 
  N23      1.0000 0.81730  0.10850  0.96570  Biso   1.000  N 
  N24      1.0000 0.57850  0.03380  0.72100  Biso   1.000  N 
  N25      1.0000 0.51480  0.03680  0.65870  Biso   1.000  N 
  N26      1.0000 0.27780  0.01340  0.50030  Biso   1.000  N 
  N27      1.0000 0.29530  0.06030  0.46760  Biso   1.000  N 
  N28      1.0000 0.32770  0.13340  0.44340  Biso   1.000  N 
  N29      1.0000 0.81240  0.98610  0.38270  Biso   1.000  N 
  N30      1.0000 0.79890  0.93020  0.41600  Biso   1.000  N 
  N31      1.0000 0.81730  0.89150  0.46570  Biso   1.000  N 
  N32      1.0000 0.57850  0.96620  0.22100  Biso   1.000  N 
  N33      1.0000 0.51480  0.96320  0.15870  Biso   1.000  N 
  N34      1.0000 0.27780  0.98660  0.00030  Biso   1.000  N 
  N35      1.0000 0.29530  0.93970  0.96760  Biso   1.000  N 
  N36      1.0000 0.32770  0.86660  0.94340  Biso   1.000  N 
