data_image0
_cell_length_a       10.434
_cell_length_b       15.726
_cell_length_c       16.205
_cell_angle_alpha    90
_cell_angle_beta     101.45
_cell_angle_gamma    90

_symmetry_space_group_name_H-M    "P 1"
_symmetry_int_tables_number       1

loop_
  _symmetry_equiv_pos_as_xyz
  'x, y, z'

loop_
  _atom_site_label
  _atom_site_occupancy
  _atom_site_fract_x
  _atom_site_fract_y
  _atom_site_fract_z
  _atom_site_thermal_displace_type
  _atom_site_B_iso_or_equiv
  _atom_site_type_symbol
  C1       1.0000 0.57820  0.71890  0.62000  Biso   1.000  C 
  H1       1.0000 0.55890  0.75700  0.65970  Biso   1.000  H 
  N1       1.0000 0.64330  0.64420  0.63940  Biso   1.000  N 
  C2       1.0000 0.65410  0.60700  0.56410  Biso   1.000  C 
  H2       1.0000 0.69540  0.55590  0.55670  Biso   1.000  H 
  C3       1.0000 0.59370  0.65880  0.50410  Biso   1.000  C 
  H3       1.0000 0.58460  0.64850  0.44670  Biso   1.000  H 
  N2       1.0000 0.54600  0.73020  0.53810  Biso   1.000  N 
  Zn1      1.0000 0.43872  0.82699  0.48209  Biso   1.000  Zn
  N3       1.0000 0.56230  0.92520  0.47120  Biso   1.000  N 
  C4       1.0000 0.57070  0.96260  0.40160  Biso   1.000  C 
  H4       1.0000 0.53050  0.94350  0.34840  Biso   1.000  H 
  N4       1.0000 0.64650  0.03380  0.41640  Biso   1.000  N 
  C5       1.0000 0.68760  0.03990  0.50260  Biso   1.000  C 
  H5       1.0000 0.74050  0.08190  0.53210  Biso   1.000  H 
  C6       1.0000 0.63510  0.97190  0.53540  Biso   1.000  C 
  H6       1.0000 0.64660  0.95900  0.59240  Biso   1.000  H 
  C7       1.0000 0.67420  0.09000  0.35420  Biso   1.000  C 
  N5       1.0000 0.63940  0.06100  0.27650  Biso   1.000  N 
  C8       1.0000 0.66040  0.11330  0.21360  Biso   1.000  C 
  N6       1.0000 0.61880  0.07840  0.13210  Biso   1.000  N 
  C9       1.0000 0.63840  0.11350  0.05810  Biso   1.000  C 
  H7       1.0000 0.68080  0.16430  0.05150  Biso   1.000  H 
  C10      1.0000 0.58300  0.05860  0.99670  Biso   1.000  C 
  H8       1.0000 0.58160  0.06570  0.93960  Biso   1.000  H 
  N7       1.0000 0.52940  0.99090  0.03170  Biso   1.000  N 
  C11      1.0000 0.55460  0.00390  0.11390  Biso   1.000  C 
  H9       1.0000 0.53150  0.96720  0.15350  Biso   1.000  H 
  Zn2      1.0000 0.42443  0.89174  0.97663  Biso   1.000  Zn
  O1       1.0000 0.33630  0.85680  0.06500  Biso   1.000  O 
  C12      1.0000 0.23780  0.80780  0.04330  Biso   1.000  C 
  C13      1.0000 0.17140  0.78370  0.11590  Biso   1.000  C 
  C14      1.0000 0.04200  0.75880  0.10040  Biso   1.000  C 
  H10      1.0000 0.99650  0.75350  0.04520  Biso   1.000  H 
  C15      1.0000 0.97900  0.74180  0.16660  Biso   1.000  C 
  H11      1.0000 0.89070  0.72790  0.15610  Biso   1.000  H 
  C16      1.0000 0.04950  0.74580  0.24780  Biso   1.000  C 
  H12      1.0000 0.00790  0.73370  0.29220  Biso   1.000  H 
  C17      1.0000 0.17990  0.76740  0.26510  Biso   1.000  C 
  C18      1.0000 0.24070  0.78950  0.19900  Biso   1.000  C 
  H13      1.0000 0.32700  0.80810  0.21000  Biso   1.000  H 
  C19      1.0000 0.25870  0.76650  0.35370  Biso   1.000  C 
  O2       1.0000 0.21270  0.73030  0.40980  Biso   1.000  O 
  O3       1.0000 0.36910  0.80290  0.36488  Biso   1.000  O 
  O4       1.0000 0.19590  0.77890  0.97260  Biso   1.000  O 
  N8       1.0000 0.55500  0.79870  0.96960  Biso   1.000  N 
  C20      1.0000 0.62240  0.74970  0.03640  Biso   1.000  C 
  H14      1.0000 0.62480  0.76100  0.09300  Biso   1.000  H 
  C21      1.0000 0.68280  0.68440  0.00740  Biso   1.000  C 
  H15      1.0000 0.73280  0.64250  0.03920  Biso   1.000  H 
  N9       1.0000 0.65560  0.69210  0.92050  Biso   1.000  N 
  C22      1.0000 0.69150  0.63530  0.86050  Biso   1.000  C 
  N10      1.0000 0.65610  0.66200  0.78160  Biso   1.000  N 
  C23      1.0000 0.68470  0.61240  0.72290  Biso   1.000  C 
  C24      1.0000 0.74610  0.53360  0.73650  Biso   1.000  C 
  H16      1.0000 0.76270  0.50000  0.69260  Biso   1.000  H 
  C25      1.0000 0.78030  0.50870  0.81910  Biso   1.000  C 
  H17      1.0000 0.82360  0.45720  0.83220  Biso   1.000  H 
  C26      1.0000 0.75150  0.55910  0.88380  Biso   1.000  C 
  H18      1.0000 0.77190  0.54200  0.93980  Biso   1.000  H 
  C27      1.0000 0.57870  0.76100  0.90120  Biso   1.000  C 
  H19      1.0000 0.54640  0.77980  0.84660  Biso   1.000  H 
  O5       1.0000 0.34780  0.91640  0.86050  Biso   1.000  O 
  C28      1.0000 0.25120  0.96870  0.84690  Biso   1.000  C 
  O6       1.0000 0.20630  0.00700  0.90200  Biso   1.000  O 
  C29      1.0000 0.19540  0.98570  0.75510  Biso   1.000  C 
  C30      1.0000 0.09730  0.04490  0.73050  Biso   1.000  C 
  H20      1.0000 0.06190  0.07350  0.77090  Biso   1.000  H 
  C31      1.0000 0.05160  0.06190  0.64590  Biso   1.000  C 
  C32      1.0000 0.10420  0.02170  0.58530  Biso   1.000  C 
  H21      1.0000 0.07430  0.03460  0.52870  Biso   1.000  H 
  C33      1.0000 0.20220  0.96180  0.60850  Biso   1.000  C 
  C34      1.0000 0.26630  0.91770  0.54480  Biso   1.000  C 
  O7       1.0000 0.23090  0.93370  0.46860  Biso   1.000  O 
  O8       1.0000 0.35550  0.86270  0.57360  Biso   1.000  O 
  C35      1.0000 0.24640  0.94430  0.69300  Biso   1.000  C 
  H22      1.0000 0.31170  0.90380  0.70860  Biso   1.000  H 
  H23      1.0000 0.98440  0.10100  0.63010  Biso   1.000  H 
  C36      1.0000 0.71340  0.19200  0.22770  Biso   1.000  C 
  H24      1.0000 0.72560  0.22630  0.18310  Biso   1.000  H 
  C37      1.0000 0.74890  0.22000  0.30990  Biso   1.000  C 
  H25      1.0000 0.78630  0.27350  0.32100  Biso   1.000  H 
  C38      1.0000 0.72960  0.16960  0.37520  Biso   1.000  C 
  H26      1.0000 0.75230  0.18760  0.43090  Biso   1.000  H 
