data_image0
_cell_length_a       16.7507
_cell_length_b       16.8587
_cell_length_c       7.5561
_cell_angle_alpha    90
_cell_angle_beta     90
_cell_angle_gamma    90

_symmetry_space_group_name_H-M    "P 1"
_symmetry_int_tables_number       1

loop_
  _symmetry_equiv_pos_as_xyz
  'x, y, z'

loop_
  _atom_site_label
  _atom_site_occupancy
  _atom_site_fract_x
  _atom_site_fract_y
  _atom_site_fract_z
  _atom_site_thermal_displace_type
  _atom_site_B_iso_or_equiv
  _atom_site_type_symbol
  V1       1.0000 0.00000  0.00000  0.61310  Biso   1.000  V 
  O1       1.0000 0.00000  0.00000  0.81700  Biso   1.000  O 
  V2       1.0000 0.00000  0.00000  0.11310  Biso   1.000  V 
  O2       1.0000 0.00000  0.00000  0.31700  Biso   1.000  O 
  O3       1.0000 0.02550  0.11280  0.07470  Biso   1.000  O 
  C1       1.0000 0.09502  0.14080  0.02250  Biso   1.000  C 
  C2       1.0000 0.09520  0.23020  0.01220  Biso   1.000  C 
  F1       1.0000 0.14560  0.25710  0.13200  Biso   1.000  F 
  F2       1.0000 0.02900  0.26130  0.04200  Biso   1.000  F 
  F3       1.0000 0.12080  0.25170  0.85900  Biso   1.000  F 
  C3       1.0000 0.16502  0.10110  0.02180  Biso   1.000  C 
  H1       1.0000 0.21160  0.13100  0.01870  Biso   1.000  H 
  C4       1.0000 0.17289  0.01890  0.02540  Biso   1.000  C 
  O4       1.0000 0.11500  0.97390  0.08010  Biso   1.000  O 
  C5       1.0000 0.25073  0.97890  0.01710  Biso   1.000  C 
  C6       1.0000 0.25480  0.89850  0.02270  Biso   1.000  C 
  H2       1.0000 0.20930  0.86830  0.04360  Biso   1.000  H 
  C7       1.0000 0.32970  0.86170  0.99600  Biso   1.000  C 
  C8       1.0000 0.39410  0.90350  0.96400  Biso   1.000  C 
  H3       1.0000 0.44310  0.87860  0.94770  Biso   1.000  H 
  C9       1.0000 0.38820  0.98040  0.95500  Biso   1.000  C 
  C10      1.0000 0.31650  0.02220  0.97200  Biso   1.000  C 
  H4       1.0000 0.31380  0.07670  0.95450  Biso   1.000  H 
  H5       1.0000 0.43460  0.00940  0.93560  Biso   1.000  H 
  H6       1.0000 0.33340  0.80670  0.00160  Biso   1.000  H 
  O5       1.0000 0.97450  0.88720  0.07470  Biso   1.000  O 
  C11      1.0000 0.90498  0.85920  0.02250  Biso   1.000  C 
  C12      1.0000 0.83498  0.89890  0.02180  Biso   1.000  C 
  H7       1.0000 0.78840  0.86900  0.01870  Biso   1.000  H 
  C13      1.0000 0.82711  0.98110  0.02540  Biso   1.000  C 
  C14      1.0000 0.74927  0.02110  0.01710  Biso   1.000  C 
  C15      1.0000 0.74520  0.10150  0.02270  Biso   1.000  C 
  H8       1.0000 0.79070  0.13170  0.04360  Biso   1.000  H 
  C16      1.0000 0.67030  0.13830  0.99600  Biso   1.000  C 
  C17      1.0000 0.60590  0.09650  0.96400  Biso   1.000  C 
  H9       1.0000 0.55690  0.12140  0.94770  Biso   1.000  H 
  C18      1.0000 0.61180  0.01960  0.95500  Biso   1.000  C 
  C19      1.0000 0.68350  0.97780  0.97200  Biso   1.000  C 
  H10      1.0000 0.68620  0.92330  0.95450  Biso   1.000  H 
  H11      1.0000 0.56540  0.99060  0.93560  Biso   1.000  H 
  H12      1.0000 0.66660  0.19330  0.00160  Biso   1.000  H 
  O6       1.0000 0.88500  0.02610  0.08010  Biso   1.000  O 
  C20      1.0000 0.90480  0.76980  0.01220  Biso   1.000  C 
  F4       1.0000 0.97100  0.73870  0.04200  Biso   1.000  F 
  F5       1.0000 0.85440  0.74290  0.13200  Biso   1.000  F 
  F6       1.0000 0.87920  0.74830  0.85900  Biso   1.000  F 
  O7       1.0000 0.11500  0.02610  0.58010  Biso   1.000  O 
  C21      1.0000 0.17289  0.98110  0.52540  Biso   1.000  C 
  C22      1.0000 0.16502  0.89890  0.52180  Biso   1.000  C 
  H13      1.0000 0.21160  0.86900  0.51870  Biso   1.000  H 
  C23      1.0000 0.09502  0.85920  0.52250  Biso   1.000  C 
  C24      1.0000 0.09520  0.76980  0.51220  Biso   1.000  C 
  F7       1.0000 0.12080  0.74830  0.35900  Biso   1.000  F 
  F8       1.0000 0.02900  0.73870  0.54200  Biso   1.000  F 
  F9       1.0000 0.14560  0.74290  0.63200  Biso   1.000  F 
  O8       1.0000 0.02550  0.88720  0.57470  Biso   1.000  O 
  C25      1.0000 0.25073  0.02110  0.51710  Biso   1.000  C 
  C26      1.0000 0.25480  0.10150  0.52270  Biso   1.000  C 
  H14      1.0000 0.20930  0.13170  0.54360  Biso   1.000  H 
  C27      1.0000 0.32970  0.13830  0.49600  Biso   1.000  C 
  H15      1.0000 0.33340  0.19330  0.50160  Biso   1.000  H 
  C28      1.0000 0.39410  0.09650  0.46400  Biso   1.000  C 
  H16      1.0000 0.44310  0.12140  0.44770  Biso   1.000  H 
  C29      1.0000 0.38820  0.01960  0.45500  Biso   1.000  C 
  C30      1.0000 0.31650  0.97780  0.47200  Biso   1.000  C 
  H17      1.0000 0.31380  0.92330  0.45450  Biso   1.000  H 
  H18      1.0000 0.43460  0.99060  0.43560  Biso   1.000  H 
  O9       1.0000 0.97450  0.11280  0.57470  Biso   1.000  O 
  C31      1.0000 0.90498  0.14080  0.52250  Biso   1.000  C 
  C32      1.0000 0.83498  0.10110  0.52180  Biso   1.000  C 
  H19      1.0000 0.78840  0.13100  0.51870  Biso   1.000  H 
  C33      1.0000 0.82711  0.01890  0.52540  Biso   1.000  C 
  O10      1.0000 0.88500  0.97390  0.58010  Biso   1.000  O 
  C34      1.0000 0.74927  0.97890  0.51710  Biso   1.000  C 
  C35      1.0000 0.74520  0.89850  0.52270  Biso   1.000  C 
  C36      1.0000 0.67030  0.86170  0.49600  Biso   1.000  C 
  C37      1.0000 0.60590  0.90350  0.46400  Biso   1.000  C 
  H20      1.0000 0.55690  0.87860  0.44770  Biso   1.000  H 
  C38      1.0000 0.61180  0.98040  0.45500  Biso   1.000  C 
  H21      1.0000 0.56540  0.00940  0.43560  Biso   1.000  H 
  C39      1.0000 0.68350  0.02220  0.47200  Biso   1.000  C 
  H22      1.0000 0.68620  0.07670  0.45450  Biso   1.000  H 
  H23      1.0000 0.66660  0.80670  0.50160  Biso   1.000  H 
  H24      1.0000 0.79070  0.86830  0.54360  Biso   1.000  H 
  C40      1.0000 0.90480  0.23020  0.51220  Biso   1.000  C 
  F10      1.0000 0.85440  0.25710  0.63200  Biso   1.000  F 
  F11      1.0000 0.87920  0.25170  0.35900  Biso   1.000  F 
  F12      1.0000 0.97100  0.26130  0.54200  Biso   1.000  F 
