data_image0
_cell_length_a       10.2439
_cell_length_b       21.79
_cell_length_c       23.0178
_cell_angle_alpha    90
_cell_angle_beta     95.893
_cell_angle_gamma    90

_symmetry_space_group_name_H-M    "P 1"
_symmetry_int_tables_number       1

loop_
  _symmetry_equiv_pos_as_xyz
  'x, y, z'

loop_
  _atom_site_label
  _atom_site_occupancy
  _atom_site_fract_x
  _atom_site_fract_y
  _atom_site_fract_z
  _atom_site_thermal_displace_type
  _atom_site_B_iso_or_equiv
  _atom_site_type_symbol
  Tb1      1.0000 0.66897  0.26487  0.63290  Biso   1.000  Tb
  O1       1.0000 0.45260  0.30221  0.61992  Biso   1.000  O 
  C1       1.0000 0.36360  0.29870  0.57700  Biso   1.000  C 
  C2       1.0000 0.36100  0.25590  0.53130  Biso   1.000  C 
  H1       1.0000 0.29510  0.25970  0.49930  Biso   1.000  H 
  C3       1.0000 0.45200  0.20770  0.53100  Biso   1.000  C 
  C4       1.0000 0.42650  0.16350  0.48160  Biso   1.000  C 
  C5       1.0000 0.48120  0.10470  0.49340  Biso   1.000  C 
  H2       1.0000 0.52420  0.09500  0.53080  Biso   1.000  H 
  C6       1.0000 0.47040  0.06150  0.44910  Biso   1.000  C 
  H3       1.0000 0.50680  0.02180  0.45650  Biso   1.000  H 
  C7       1.0000 0.40930  0.07440  0.39540  Biso   1.000  C 
  H4       1.0000 0.40720  0.04430  0.36550  Biso   1.000  H 
  C8       1.0000 0.35090  0.12960  0.38350  Biso   1.000  C 
  H5       1.0000 0.30380  0.13760  0.34660  Biso   1.000  H 
  C9       1.0000 0.36250  0.17460  0.42780  Biso   1.000  C 
  H6       1.0000 0.32450  0.21390  0.41990  Biso   1.000  H 
  O2       1.0000 0.54710  0.20068  0.57016  Biso   1.000  O 
  C10      1.0000 0.25560  0.34500  0.57620  Biso   1.000  C 
  C11      1.0000 0.12500  0.33000  0.55930  Biso   1.000  C 
  H7       1.0000 0.10270  0.28910  0.54780  Biso   1.000  H 
  C12      1.0000 0.02740  0.37370  0.55920  Biso   1.000  C 
  C13      1.0000 0.05930  0.43360  0.57470  Biso   1.000  C 
  C14      1.0000 0.18950  0.44920  0.59190  Biso   1.000  C 
  H8       1.0000 0.21170  0.49040  0.60230  Biso   1.000  H 
  C15      1.0000 0.28630  0.40490  0.59380  Biso   1.000  C 
  H9       1.0000 0.37430  0.41530  0.60720  Biso   1.000  H 
  H10      1.0000 0.99260  0.46400  0.57350  Biso   1.000  H 
  H11      1.0000 0.93850  0.36270  0.54850  Biso   1.000  H 
  N1       1.0000 0.71280  0.15210  0.66460  Biso   1.000  N 
  C16      1.0000 0.83340  0.12870  0.67730  Biso   1.000  C 
  H12      1.0000 0.90600  0.15130  0.66610  Biso   1.000  H 
  C17      1.0000 0.85780  0.07330  0.70590  Biso   1.000  C 
  H13      1.0000 0.94510  0.05880  0.71440  Biso   1.000  H 
  C18      1.0000 0.75210  0.03920  0.72220  Biso   1.000  C 
  C19      1.0000 0.62710  0.06300  0.70800  Biso   1.000  C 
  H14      1.0000 0.55220  0.04130  0.71800  Biso   1.000  H 
  C20      1.0000 0.61260  0.11880  0.67900  Biso   1.000  C 
  H15      1.0000 0.52630  0.13390  0.66900  Biso   1.000  H 
  C21      1.0000 0.77460  0.98120  0.75530  Biso   1.000  C 
  C22      1.0000 0.88450  0.94450  0.75050  Biso   1.000  C 
  H16      1.0000 0.94690  0.95560  0.72460  Biso   1.000  H 
  C23      1.0000 0.90150  0.89160  0.78410  Biso   1.000  C 
  H17      1.0000 0.97760  0.86740  0.78070  Biso   1.000  H 
  N2       1.0000 0.81740  0.87284  0.82070  Biso   1.000  N 
  Tb2      1.0000 0.83103  0.76487  0.86710  Biso   1.000  Tb
  O3       1.0000 0.95290  0.70068  0.92984  Biso   1.000  O 
  C24      1.0000 0.04800  0.70770  0.96900  Biso   1.000  C 
  C25      1.0000 0.07350  0.66350  0.01840  Biso   1.000  C 
  C26      1.0000 0.13750  0.67460  0.07220  Biso   1.000  C 
  H18      1.0000 0.17550  0.71390  0.08010  Biso   1.000  H 
  C27      1.0000 0.14910  0.62960  0.11650  Biso   1.000  C 
  H19      1.0000 0.19620  0.63760  0.15340  Biso   1.000  H 
  C28      1.0000 0.09070  0.57440  0.10460  Biso   1.000  C 
  C29      1.0000 0.02960  0.56150  0.05090  Biso   1.000  C 
  C30      1.0000 0.01880  0.60470  0.00660  Biso   1.000  C 
  H20      1.0000 0.97580  0.59500  0.96920  Biso   1.000  H 
  H21      1.0000 0.99320  0.52180  0.04350  Biso   1.000  H 
  H22      1.0000 0.09280  0.54430  0.13450  Biso   1.000  H 
  C31      1.0000 0.13900  0.75590  0.96870  Biso   1.000  C 
  H23      1.0000 0.20490  0.75970  0.00070  Biso   1.000  H 
  C32      1.0000 0.13640  0.79870  0.92300  Biso   1.000  C 
  O4       1.0000 0.04740  0.80221  0.88008  Biso   1.000  O 
  C33      1.0000 0.24440  0.84500  0.92380  Biso   1.000  C 
  C34      1.0000 0.37500  0.83000  0.94070  Biso   1.000  C 
  H24      1.0000 0.39730  0.78910  0.95220  Biso   1.000  H 
  C35      1.0000 0.47260  0.87370  0.94080  Biso   1.000  C 
  H25      1.0000 0.56150  0.86270  0.95150  Biso   1.000  H 
  C36      1.0000 0.44070  0.93360  0.92530  Biso   1.000  C 
  H26      1.0000 0.50740  0.96400  0.92650  Biso   1.000  H 
  C37      1.0000 0.31050  0.94920  0.90810  Biso   1.000  C 
  H27      1.0000 0.28830  0.99040  0.89770  Biso   1.000  H 
  C38      1.0000 0.21370  0.90490  0.90620  Biso   1.000  C 
  H28      1.0000 0.12570  0.91530  0.89280  Biso   1.000  H 
  N3       1.0000 0.78720  0.65210  0.83540  Biso   1.000  N 
  C39      1.0000 0.88740  0.61880  0.82100  Biso   1.000  C 
  C40      1.0000 0.87290  0.56300  0.79200  Biso   1.000  C 
  C41      1.0000 0.74790  0.53920  0.77780  Biso   1.000  C 
  C42      1.0000 0.72540  0.48120  0.74470  Biso   1.000  C 
  C43      1.0000 0.81380  0.46170  0.70640  Biso   1.000  C 
  C44      1.0000 0.78850  0.40790  0.67480  Biso   1.000  C 
  H29      1.0000 0.84940  0.39540  0.64870  Biso   1.000  H 
  N4       1.0000 0.68260  0.37284  0.67930  Biso   1.000  N 
  C45      1.0000 0.59850  0.39160  0.71590  Biso   1.000  C 
  H30      1.0000 0.52240  0.36740  0.71930  Biso   1.000  H 
  C46      1.0000 0.61550  0.44450  0.74950  Biso   1.000  C 
  H31      1.0000 0.55310  0.45560  0.77540  Biso   1.000  H 
  H32      1.0000 0.89060  0.48500  0.70190  Biso   1.000  H 
  C47      1.0000 0.64220  0.57330  0.79410  Biso   1.000  C 
  H33      1.0000 0.55490  0.55880  0.78560  Biso   1.000  H 
  C48      1.0000 0.66660  0.62870  0.82270  Biso   1.000  C 
  H34      1.0000 0.59400  0.65130  0.83390  Biso   1.000  H 
  H35      1.0000 0.94780  0.54130  0.78200  Biso   1.000  H 
  H36      1.0000 0.97370  0.63390  0.83100  Biso   1.000  H 
  O5       1.0000 0.67410  0.72781  0.92581  Biso   1.000  O 
  C49      1.0000 0.67240  0.72930  0.98060  Biso   1.000  C 
  C50      1.0000 0.60460  0.68180  0.01300  Biso   1.000  C 
  C51      1.0000 0.53200  0.69190  0.05720  Biso   1.000  C 
  C52      1.0000 0.47870  0.64330  0.08710  Biso   1.000  C 
  H37      1.0000 0.42960  0.65100  0.11910  Biso   1.000  H 
  C53      1.0000 0.49870  0.58510  0.06920  Biso   1.000  C 
  H38      1.0000 0.45860  0.55190  0.08750  Biso   1.000  H 
  C54      1.0000 0.57380  0.57360  0.02630  Biso   1.000  C 
  H39      1.0000 0.58970  0.53230  0.01580  Biso   1.000  H 
  C55      1.0000 0.62850  0.62060  0.99720  Biso   1.000  C 
  H40      1.0000 0.68180  0.61190  0.96670  Biso   1.000  H 
  H41      1.0000 0.51620  0.73290  0.06870  Biso   1.000  H 
  C56      1.0000 0.74080  0.77120  0.01830  Biso   1.000  C 
  H42      1.0000 0.73470  0.76720  0.05900  Biso   1.000  H 
  C57      1.0000 0.81810  0.81890  0.99910  Biso   1.000  C 
  O6       1.0000 0.82830  0.83050  0.94580  Biso   1.000  O 
  C58      1.0000 0.89900  0.86150  0.04410  Biso   1.000  C 
  C59      1.0000 0.90250  0.85690  0.10280  Biso   1.000  C 
  H43      1.0000 0.85200  0.82580  0.11880  Biso   1.000  H 
  C60      1.0000 0.97860  0.89670  0.14110  Biso   1.000  C 
  H44      1.0000 0.97760  0.89340  0.18220  Biso   1.000  H 
  C61      1.0000 0.05270  0.93950  0.11790  Biso   1.000  C 
  H45      1.0000 0.10860  0.96510  0.14280  Biso   1.000  H 
  C62      1.0000 0.04830  0.94630  0.05950  Biso   1.000  C 
  H46      1.0000 0.09830  0.97800  0.04420  Biso   1.000  H 
  C63      1.0000 0.97280  0.90840  0.02120  Biso   1.000  C 
  H47      1.0000 0.97100  0.91390  0.98010  Biso   1.000  H 
  O7       1.0000 0.88140  0.74903  0.77128  Biso   1.000  O 
  C64      1.0000 0.81000  0.73470  0.72440  Biso   1.000  C 
  C65      1.0000 0.87710  0.69960  0.67910  Biso   1.000  C 
  C66      1.0000 0.81180  0.67450  0.62910  Biso   1.000  C 
  C67      1.0000 0.87600  0.64010  0.59060  Biso   1.000  C 
  H48      1.0000 0.82820  0.62260  0.55700  Biso   1.000  H 
  C68      1.0000 0.00830  0.63110  0.60070  Biso   1.000  C 
  H49      1.0000 0.05360  0.60800  0.57400  Biso   1.000  H 
  C69      1.0000 0.07530  0.65610  0.65030  Biso   1.000  C 
  H50      1.0000 0.16720  0.64960  0.65770  Biso   1.000  H 
  C70      1.0000 0.01150  0.69030  0.68930  Biso   1.000  C 
  H51      1.0000 0.05940  0.70730  0.72300  Biso   1.000  H 
  H52      1.0000 0.72000  0.68110  0.62110  Biso   1.000  H 
  C71      1.0000 0.67600  0.74880  0.71340  Biso   1.000  C 
  H53      1.0000 0.63590  0.74300  0.67470  Biso   1.000  H 
  C72      1.0000 0.59810  0.77040  0.75430  Biso   1.000  C 
  C73      1.0000 0.45850  0.78820  0.73750  Biso   1.000  C 
  C74      1.0000 0.41220  0.80210  0.67980  Biso   1.000  C 
  H54      1.0000 0.46950  0.79920  0.64990  Biso   1.000  H 
  C75      1.0000 0.28290  0.82010  0.66580  Biso   1.000  C 
  H55      1.0000 0.25250  0.83020  0.62660  Biso   1.000  H 
  C76      1.0000 0.19850  0.82320  0.70860  Biso   1.000  C 
  H56      1.0000 0.10960  0.83460  0.69870  Biso   1.000  H 
  C77      1.0000 0.24310  0.80970  0.76620  Biso   1.000  C 
  H57      1.0000 0.18510  0.81220  0.79580  Biso   1.000  H 
  C78      1.0000 0.37270  0.79260  0.78010  Biso   1.000  C 
  H58      1.0000 0.40340  0.78370  0.81950  Biso   1.000  H 
  O8       1.0000 0.63520  0.77362  0.80947  Biso   1.000  O 
  C79      1.0000 0.71150  0.90790  0.82520  Biso   1.000  C 
  H59      1.0000 0.65060  0.89540  0.85130  Biso   1.000  H 
  C80      1.0000 0.68620  0.96170  0.79360  Biso   1.000  C 
  H60      1.0000 0.60940  0.98500  0.79810  Biso   1.000  H 
  O9       1.0000 0.82590  0.22781  0.57419  Biso   1.000  O 
  C81      1.0000 0.82760  0.22930  0.51940  Biso   1.000  C 
  C82      1.0000 0.89540  0.18180  0.48700  Biso   1.000  C 
  C83      1.0000 0.96800  0.19190  0.44280  Biso   1.000  C 
  H61      1.0000 0.98380  0.23290  0.43130  Biso   1.000  H 
  C84      1.0000 0.02130  0.14330  0.41290  Biso   1.000  C 
  C85      1.0000 0.00130  0.08510  0.43080  Biso   1.000  C 
  H62      1.0000 0.04140  0.05190  0.41250  Biso   1.000  H 
  C86      1.0000 0.92620  0.07360  0.47370  Biso   1.000  C 
  H63      1.0000 0.91030  0.03230  0.48420  Biso   1.000  H 
  C87      1.0000 0.87150  0.12060  0.50280  Biso   1.000  C 
  H64      1.0000 0.81820  0.11190  0.53330  Biso   1.000  H 
  H65      1.0000 0.07040  0.15100  0.38090  Biso   1.000  H 
  C88      1.0000 0.75920  0.27120  0.48170  Biso   1.000  C 
  H66      1.0000 0.76530  0.26720  0.44100  Biso   1.000  H 
  C89      1.0000 0.68190  0.31890  0.50090  Biso   1.000  C 
  C90      1.0000 0.60100  0.36150  0.45590  Biso   1.000  C 
  C91      1.0000 0.52720  0.40840  0.47880  Biso   1.000  C 
  C92      1.0000 0.45170  0.44630  0.44050  Biso   1.000  C 
  H67      1.0000 0.40170  0.47800  0.45580  Biso   1.000  H 
  C93      1.0000 0.44730  0.43950  0.38210  Biso   1.000  C 
  H68      1.0000 0.39140  0.46510  0.35720  Biso   1.000  H 
  C94      1.0000 0.52140  0.39670  0.35890  Biso   1.000  C 
  C95      1.0000 0.59750  0.35690  0.39720  Biso   1.000  C 
  H69      1.0000 0.64800  0.32580  0.38120  Biso   1.000  H 
  H70      1.0000 0.52240  0.39340  0.31780  Biso   1.000  H 
  H71      1.0000 0.52900  0.41390  0.51990  Biso   1.000  H 
  O10      1.0000 0.67170  0.33050  0.55420  Biso   1.000  O 
  O11      1.0000 0.61860  0.24903  0.72872  Biso   1.000  O 
  C96      1.0000 0.69000  0.23470  0.77560  Biso   1.000  C 
  C97      1.0000 0.62290  0.19960  0.82090  Biso   1.000  C 
  C98      1.0000 0.48850  0.19030  0.81070  Biso   1.000  C 
  H72      1.0000 0.44060  0.20730  0.77700  Biso   1.000  H 
  C99      1.0000 0.42470  0.15610  0.84970  Biso   1.000  C 
  H73      1.0000 0.33280  0.14960  0.84230  Biso   1.000  H 
  C100     1.0000 0.49170  0.13110  0.89930  Biso   1.000  C 
  H74      1.0000 0.44640  0.10800  0.92600  Biso   1.000  H 
  C101     1.0000 0.62400  0.14010  0.90940  Biso   1.000  C 
  H75      1.0000 0.67180  0.12260  0.94300  Biso   1.000  H 
  C102     1.0000 0.68820  0.17450  0.87090  Biso   1.000  C 
  H76      1.0000 0.78000  0.18110  0.87890  Biso   1.000  H 
  C103     1.0000 0.82400  0.24880  0.78660  Biso   1.000  C 
  H77      1.0000 0.86410  0.24300  0.82530  Biso   1.000  H 
  C104     1.0000 0.90190  0.27040  0.74570  Biso   1.000  C 
  O12      1.0000 0.86480  0.27362  0.69053  Biso   1.000  O 
  C105     1.0000 0.04150  0.28820  0.76250  Biso   1.000  C 
  C106     1.0000 0.12730  0.29260  0.71990  Biso   1.000  C 
  H78      1.0000 0.09660  0.28370  0.68050  Biso   1.000  H 
  C107     1.0000 0.25690  0.30970  0.73380  Biso   1.000  C 
  H79      1.0000 0.31490  0.31220  0.70420  Biso   1.000  H 
  C108     1.0000 0.30150  0.32320  0.79140  Biso   1.000  C 
  H80      1.0000 0.39040  0.33460  0.80130  Biso   1.000  H 
  C109     1.0000 0.21710  0.32010  0.83420  Biso   1.000  C 
  C110     1.0000 0.08780  0.30210  0.82020  Biso   1.000  C 
  H81      1.0000 0.03050  0.29920  0.85010  Biso   1.000  H 
  H82      1.0000 0.24750  0.33020  0.87340  Biso   1.000  H 
