data_image0
_cell_length_a       8.1791
_cell_length_b       8.1791
_cell_length_c       16.42
_cell_angle_alpha    90
_cell_angle_beta     90
_cell_angle_gamma    90

_symmetry_space_group_name_H-M    "P 1"
_symmetry_int_tables_number       1

loop_
  _symmetry_equiv_pos_as_xyz
  'x, y, z'

loop_
  _atom_site_label
  _atom_site_occupancy
  _atom_site_fract_x
  _atom_site_fract_y
  _atom_site_fract_z
  _atom_site_thermal_displace_type
  _atom_site_B_iso_or_equiv
  _atom_site_type_symbol
  Cd1      1.0000 0.71465  0.78535  0.75000  Biso   1.000  Cd
  C1       1.0000 0.69520  0.48580  0.68560  Biso   1.000  C 
  O1       1.0000 0.69050  0.60280  0.63650  Biso   1.000  O 
  O2       1.0000 0.70400  0.50470  0.76130  Biso   1.000  O 
  C2       1.0000 0.68940  0.31420  0.65250  Biso   1.000  C 
  C3       1.0000 0.68920  0.28690  0.56920  Biso   1.000  C 
  C4       1.0000 0.69340  0.12890  0.53970  Biso   1.000  C 
  H1       1.0000 0.69420  0.10880  0.48390  Biso   1.000  H 
  C5       1.0000 0.69630  0.00180  0.59460  Biso   1.000  C 
  N1       1.0000 0.69350  0.02490  0.67560  Biso   1.000  N 
  C6       1.0000 0.69130  0.17800  0.70460  Biso   1.000  C 
  C7       1.0000 0.67800  0.19130  0.79540  Biso   1.000  C 
  C8       1.0000 0.81420  0.18940  0.84750  Biso   1.000  C 
  C9       1.0000 0.98580  0.19520  0.81440  Biso   1.000  C 
  O3       1.0000 0.00470  0.20400  0.73870  Biso   1.000  O 
  Cd2      1.0000 0.28535  0.21465  0.75000  Biso   1.000  Cd
  O4       1.0000 0.29600  0.49530  0.76130  Biso   1.000  O 
  C10      1.0000 0.30480  0.51420  0.68560  Biso   1.000  C 
  O5       1.0000 0.30950  0.39720  0.63650  Biso   1.000  O 
  C11      1.0000 0.31060  0.68580  0.65250  Biso   1.000  C 
  C12      1.0000 0.31080  0.71310  0.56920  Biso   1.000  C 
  H2       1.0000 0.31380  0.62520  0.53330  Biso   1.000  H 
  C13      1.0000 0.30660  0.87110  0.53970  Biso   1.000  C 
  H3       1.0000 0.30580  0.89120  0.48390  Biso   1.000  H 
  C14      1.0000 0.30370  0.99820  0.59460  Biso   1.000  C 
  H4       1.0000 0.29960  0.10460  0.57480  Biso   1.000  H 
  N2       1.0000 0.30650  0.97510  0.67560  Biso   1.000  N 
  C15      1.0000 0.30870  0.82200  0.70460  Biso   1.000  C 
  C16      1.0000 0.32200  0.80870  0.79540  Biso   1.000  C 
  C17      1.0000 0.18580  0.81060  0.84750  Biso   1.000  C 
  C18      1.0000 0.21310  0.81080  0.93080  Biso   1.000  C 
  H5       1.0000 0.12520  0.81380  0.96670  Biso   1.000  H 
  C19      1.0000 0.37110  0.80660  0.96030  Biso   1.000  C 
  C20      1.0000 0.49820  0.80370  0.90540  Biso   1.000  C 
  H6       1.0000 0.60460  0.79960  0.92520  Biso   1.000  H 
  N3       1.0000 0.47510  0.80650  0.82440  Biso   1.000  N 
  H7       1.0000 0.39120  0.80580  0.01610  Biso   1.000  H 
  C21      1.0000 0.01420  0.80480  0.81440  Biso   1.000  C 
  O6       1.0000 0.89720  0.80950  0.86350  Biso   1.000  O 
  O7       1.0000 0.99530  0.79600  0.73870  Biso   1.000  O 
  O8       1.0000 0.10280  0.19050  0.86350  Biso   1.000  O 
  N4       1.0000 0.52490  0.19350  0.82440  Biso   1.000  N 
  C22      1.0000 0.50180  0.19630  0.90540  Biso   1.000  C 
  H8       1.0000 0.39540  0.20040  0.92520  Biso   1.000  H 
  C23      1.0000 0.62890  0.19340  0.96030  Biso   1.000  C 
  H9       1.0000 0.60880  0.19420  0.01610  Biso   1.000  H 
  C24      1.0000 0.78690  0.18920  0.93080  Biso   1.000  C 
  H10      1.0000 0.87480  0.18620  0.96670  Biso   1.000  H 
  H11      1.0000 0.70040  0.89540  0.57480  Biso   1.000  H 
  H12      1.0000 0.68620  0.37480  0.53330  Biso   1.000  H 
