data_image0
_cell_length_a       30.323
_cell_length_b       10.923
_cell_length_c       6.349
_cell_angle_alpha    90
_cell_angle_beta     90
_cell_angle_gamma    90

_symmetry_space_group_name_H-M    "P 1"
_symmetry_int_tables_number       1

loop_
  _symmetry_equiv_pos_as_xyz
  'x, y, z'

loop_
  _atom_site_label
  _atom_site_occupancy
  _atom_site_fract_x
  _atom_site_fract_y
  _atom_site_fract_z
  _atom_site_thermal_displace_type
  _atom_site_B_iso_or_equiv
  _atom_site_type_symbol
  S1       1.0000 0.35115  0.27140  0.50910  Biso   1.000  S 
  O1       1.0000 0.32160  0.18670  0.62500  Biso   1.000  O 
  Ag1      1.0000 0.24269  0.09387  0.50600  Biso   1.000  Ag
  N1       1.0000 0.21550  0.20300  0.20500  Biso   1.000  N 
  C1       1.0000 0.16640  0.21860  0.20200  Biso   1.000  C 
  H1       1.0000 0.15730  0.26700  0.32200  Biso   1.000  H 
  H2       1.0000 0.15240  0.13910  0.21160  Biso   1.000  H 
  N2       1.0000 0.15230  0.28040  0.00400  Biso   1.000  N 
  C2       1.0000 0.17200  0.40460  0.00300  Biso   1.000  C 
  H3       1.0000 0.16130  0.45030  0.12310  Biso   1.000  H 
  H4       1.0000 0.16280  0.44740  0.87610  Biso   1.000  H 
  N3       1.0000 0.22130  0.39930  0.01000  Biso   1.000  N 
  C3       1.0000 0.23630  0.32700  0.19600  Biso   1.000  C 
  H5       1.0000 0.22900  0.37150  0.32370  Biso   1.000  H 
  H6       1.0000 0.26810  0.31790  0.19060  Biso   1.000  H 
  C4       1.0000 0.23400  0.33140  0.81600  Biso   1.000  C 
  H7       1.0000 0.22250  0.37440  0.69370  Biso   1.000  H 
  H8       1.0000 0.26590  0.33010  0.80430  Biso   1.000  H 
  N4       1.0000 0.21720  0.20360  0.81400  Biso   1.000  N 
  C5       1.0000 0.16800  0.20890  0.82000  Biso   1.000  C 
  H9       1.0000 0.15720  0.24620  0.69160  Biso   1.000  H 
  H10      1.0000 0.15630  0.12640  0.82790  Biso   1.000  H 
  C6       1.0000 0.23090  0.13860  0.01000  Biso   1.000  C 
  H11      1.0000 0.21890  0.05630  0.00850  Biso   1.000  H 
  H12      1.0000 0.26280  0.13220  0.01330  Biso   1.000  H 
  Ag2      1.0000 0.25731  0.59387  0.00600  Biso   1.000  Ag
  N5       1.0000 0.28280  0.70360  0.31400  Biso   1.000  N 
  C7       1.0000 0.26910  0.63860  0.51000  Biso   1.000  C 
  H13      1.0000 0.23720  0.63220  0.51330  Biso   1.000  H 
  H14      1.0000 0.28110  0.55630  0.50850  Biso   1.000  H 
  N6       1.0000 0.28450  0.70300  0.70500  Biso   1.000  N 
  C8       1.0000 0.26370  0.82700  0.69600  Biso   1.000  C 
  H15      1.0000 0.23190  0.81790  0.69060  Biso   1.000  H 
  H16      1.0000 0.27100  0.87150  0.82370  Biso   1.000  H 
  N7       1.0000 0.27870  0.89930  0.51000  Biso   1.000  N 
  C9       1.0000 0.26600  0.83140  0.31600  Biso   1.000  C 
  H17      1.0000 0.23410  0.83010  0.30430  Biso   1.000  H 
  H18      1.0000 0.27750  0.87440  0.19370  Biso   1.000  H 
  C10      1.0000 0.32800  0.90460  0.50300  Biso   1.000  C 
  H19      1.0000 0.33720  0.94740  0.37610  Biso   1.000  H 
  H20      1.0000 0.33870  0.95030  0.62310  Biso   1.000  H 
  N8       1.0000 0.34770  0.78040  0.50400  Biso   1.000  N 
  C11      1.0000 0.33360  0.71860  0.70200  Biso   1.000  C 
  H21      1.0000 0.34270  0.76700  0.82200  Biso   1.000  H 
  H22      1.0000 0.34760  0.63910  0.71160  Biso   1.000  H 
  C12      1.0000 0.33200  0.70890  0.32000  Biso   1.000  C 
  H23      1.0000 0.34280  0.74620  0.19160  Biso   1.000  H 
  H24      1.0000 0.34370  0.62640  0.32790  Biso   1.000  H 
  O2       1.0000 0.17840  0.68670  0.12500  Biso   1.000  O 
  S2       1.0000 0.14885  0.77140  0.00910  Biso   1.000  S 
  C13      1.0000 0.09290  0.73470  0.08830  Biso   1.000  C 
  C14      1.0000 0.07830  0.76610  0.28870  Biso   1.000  C 
  C15      1.0000 0.03470  0.74520  0.34550  Biso   1.000  C 
  C16      1.0000 0.00565  0.69290  0.20190  Biso   1.000  C 
  C17      1.0000 0.02024  0.66160  0.00150  Biso   1.000  C 
  C18      1.0000 0.06386  0.68250  0.94470  Biso   1.000  C 
  H25      1.0000 0.07360  0.66150  0.81060  Biso   1.000  H 
  C19      1.0000 0.99120  0.60930  0.85790  Biso   1.000  C 
  C20      1.0000 0.94758  0.58840  0.91470  Biso   1.000  C 
  H26      1.0000 0.92820  0.55350  0.81860  Biso   1.000  H 
  C21      1.0000 0.93299  0.61980  0.11510  Biso   1.000  C 
  H27      1.0000 0.90380  0.60580  0.15310  Biso   1.000  H 
  C22      1.0000 0.96202  0.67200  0.25870  Biso   1.000  C 
  H28      1.0000 0.95230  0.69300  0.39280  Biso   1.000  H 
  H29      1.0000 0.00100  0.58840  0.72380  Biso   1.000  H 
  H30      1.0000 0.02490  0.76610  0.47960  Biso   1.000  H 
  H31      1.0000 0.09770  0.80100  0.38480  Biso   1.000  H 
  O3       1.0000 0.15850  0.89720  0.07600  Biso   1.000  O 
  O4       1.0000 0.15130  0.75610  0.78200  Biso   1.000  O 
  O5       1.0000 0.33380  0.46810  0.00400  Biso   1.000  O 
  H32      1.0000 0.33550  0.41500  0.12330  Biso   1.000  H 
  H33      1.0000 0.33470  0.41530  0.87640  Biso   1.000  H 
  O6       1.0000 0.16620  0.96810  0.50400  Biso   1.000  O 
  H34      1.0000 0.16530  0.91530  0.37640  Biso   1.000  H 
  H35      1.0000 0.16450  0.91500  0.62330  Biso   1.000  H 
  O7       1.0000 0.34150  0.39720  0.57600  Biso   1.000  O 
  O8       1.0000 0.34870  0.25610  0.28200  Biso   1.000  O 
  C23      1.0000 0.40710  0.23470  0.58830  Biso   1.000  C 
  C24      1.0000 0.42170  0.26610  0.78870  Biso   1.000  C 
  C25      1.0000 0.46530  0.24520  0.84550  Biso   1.000  C 
  C26      1.0000 0.49435  0.19290  0.70190  Biso   1.000  C 
  C27      1.0000 0.47976  0.16160  0.50150  Biso   1.000  C 
  C28      1.0000 0.50880  0.10930  0.35790  Biso   1.000  C 
  H36      1.0000 0.49900  0.08840  0.22380  Biso   1.000  H 
  C29      1.0000 0.55242  0.08840  0.41470  Biso   1.000  C 
  C30      1.0000 0.56701  0.11980  0.61510  Biso   1.000  C 
  H37      1.0000 0.59620  0.10580  0.65310  Biso   1.000  H 
  C31      1.0000 0.53798  0.17200  0.75870  Biso   1.000  C 
  H38      1.0000 0.54770  0.19300  0.89280  Biso   1.000  H 
  H39      1.0000 0.57180  0.05350  0.31860  Biso   1.000  H 
  C32      1.0000 0.43614  0.18250  0.44470  Biso   1.000  C 
  H40      1.0000 0.42640  0.16150  0.31060  Biso   1.000  H 
  H41      1.0000 0.47510  0.26610  0.97960  Biso   1.000  H 
  H42      1.0000 0.40230  0.30100  0.88480  Biso   1.000  H 
