data_image0
_cell_length_a       13.023
_cell_length_b       12.199
_cell_length_c       17.579
_cell_angle_alpha    90
_cell_angle_beta     95.09
_cell_angle_gamma    90

_symmetry_space_group_name_H-M    "P 1"
_symmetry_int_tables_number       1

loop_
  _symmetry_equiv_pos_as_xyz
  'x, y, z'

loop_
  _atom_site_label
  _atom_site_occupancy
  _atom_site_fract_x
  _atom_site_fract_y
  _atom_site_fract_z
  _atom_site_thermal_displace_type
  _atom_site_B_iso_or_equiv
  _atom_site_type_symbol
  W1       1.0000 0.95859  0.68219  0.79603  Biso   1.000  W 
  O1       1.0000 0.83520  0.64200  0.77380  Biso   1.000  O 
  S1       1.0000 0.96640  0.86030  0.82940  Biso   1.000  S 
  Cu1      1.0000 0.04314  0.75928  0.93109  Biso   1.000  Cu
  S2       1.0000 0.03180  0.57940  0.89331  Biso   1.000  S 
  Cu2      1.0000 0.11229  0.53317  0.78605  Biso   1.000  Cu
  N1       1.0000 0.02450  0.38510  0.74180  Biso   1.000  N 
  C1       1.0000 0.06690  0.28930  0.72790  Biso   1.000  C 
  H1       1.0000 0.13830  0.28350  0.73110  Biso   1.000  H 
  C2       1.0000 0.00700  0.19630  0.70860  Biso   1.000  C 
  H2       1.0000 0.03760  0.12800  0.70520  Biso   1.000  H 
  C3       1.0000 0.90900  0.20600  0.69600  Biso   1.000  C 
  H3       1.0000 0.86840  0.14490  0.68280  Biso   1.000  H 
  C4       1.0000 0.86310  0.30530  0.70000  Biso   1.000  C 
  H4       1.0000 0.79320  0.31420  0.68550  Biso   1.000  H 
  C5       1.0000 0.91930  0.38780  0.72550  Biso   1.000  C 
  H5       1.0000 0.88580  0.45370  0.73320  Biso   1.000  H 
  S3       1.0000 0.04930  0.65790  0.69421  Biso   1.000  S 
  Cu3      1.0000 0.04831  0.84730  0.71953  Biso   1.000  Cu
  N2       1.0000 0.17520  0.93600  0.71240  Biso   1.000  N 
  C6       1.0000 0.25190  0.98150  0.70910  Biso   1.000  C 
  Cu4      1.0000 0.38771  0.03317  0.71395  Biso   1.000  Cu
  S4       1.0000 0.45070  0.15790  0.80579  Biso   1.000  S 
  W2       1.0000 0.54141  0.18219  0.70397  Biso   1.000  W 
  Cu5      1.0000 0.45169  0.34730  0.78047  Biso   1.000  Cu
  N3       1.0000 0.32480  0.43600  0.78760  Biso   1.000  N 
  C7       1.0000 0.24810  0.48150  0.79090  Biso   1.000  C 
  S5       1.0000 0.53360  0.36030  0.67060  Biso   1.000  S 
  Cu6      1.0000 0.45686  0.25928  0.56891  Biso   1.000  Cu
  N4       1.0000 0.55300  0.28300  0.48400  Biso   1.000  N 
  C8       1.0000 0.55580  0.37320  0.44190  Biso   1.000  C 
  H6       1.0000 0.50290  0.42340  0.44610  Biso   1.000  H 
  C9       1.0000 0.62460  0.39900  0.39560  Biso   1.000  C 
  H7       1.0000 0.61820  0.46440  0.36840  Biso   1.000  H 
  C10      1.0000 0.70760  0.32980  0.38630  Biso   1.000  C 
  C11      1.0000 0.71250  0.23800  0.43400  Biso   1.000  C 
  H8       1.0000 0.76980  0.19220  0.43650  Biso   1.000  H 
  C12      1.0000 0.63050  0.21530  0.47820  Biso   1.000  C 
  H9       1.0000 0.63090  0.14930  0.50470  Biso   1.000  H 
  H10      1.0000 0.75560  0.34350  0.35140  Biso   1.000  H 
  N5       1.0000 0.31620  0.32010  0.52980  Biso   1.000  N 
  C13      1.0000 0.28930  0.32830  0.45580  Biso   1.000  C 
  H11      1.0000 0.33340  0.29980  0.42200  Biso   1.000  H 
  C14      1.0000 0.19920  0.37700  0.42640  Biso   1.000  C 
  H12      1.0000 0.18310  0.38400  0.37400  Biso   1.000  H 
  C15      1.0000 0.13540  0.41430  0.47670  Biso   1.000  C 
  H13      1.0000 0.07640  0.45270  0.45910  Biso   1.000  H 
  C16      1.0000 0.15580  0.39660  0.55280  Biso   1.000  C 
  H14      1.0000 0.10740  0.41330  0.58690  Biso   1.000  H 
  C17      1.0000 0.25170  0.35240  0.57850  Biso   1.000  C 
  H15      1.0000 0.27000  0.34590  0.63060  Biso   1.000  H 
  S6       1.0000 0.46820  0.07940  0.60669  Biso   1.000  S 
  N6       1.0000 0.56860  0.39510  0.86720  Biso   1.000  N 
  C18      1.0000 0.66520  0.42790  0.85470  Biso   1.000  C 
  H16      1.0000 0.68050  0.43510  0.80430  Biso   1.000  H 
  C19      1.0000 0.74170  0.45110  0.91080  Biso   1.000  C 
  H17      1.0000 0.80680  0.47330  0.89920  Biso   1.000  H 
  C20      1.0000 0.71860  0.44040  0.98320  Biso   1.000  C 
  C21      1.0000 0.62590  0.41410  0.99910  Biso   1.000  C 
  C22      1.0000 0.55120  0.38250  0.94040  Biso   1.000  C 
  H18      1.0000 0.48920  0.35260  0.95280  Biso   1.000  H 
  H19      1.0000 0.60910  0.41620  0.04940  Biso   1.000  H 
  H20      1.0000 0.76960  0.45200  0.02290  Biso   1.000  H 
  O2       1.0000 0.66480  0.14200  0.72620  Biso   1.000  O 
  N7       1.0000 0.47550  0.88510  0.75820  Biso   1.000  N 
  C23      1.0000 0.43310  0.78930  0.77210  Biso   1.000  C 
  H21      1.0000 0.36170  0.78350  0.76890  Biso   1.000  H 
  C24      1.0000 0.49300  0.69630  0.79140  Biso   1.000  C 
  H22      1.0000 0.46240  0.62800  0.79480  Biso   1.000  H 
  C25      1.0000 0.59100  0.70600  0.80400  Biso   1.000  C 
  H23      1.0000 0.63160  0.64490  0.81720  Biso   1.000  H 
  C26      1.0000 0.63690  0.80530  0.80000  Biso   1.000  C 
  H24      1.0000 0.70680  0.81420  0.81450  Biso   1.000  H 
  C27      1.0000 0.58070  0.88780  0.77450  Biso   1.000  C 
  H25      1.0000 0.61420  0.95370  0.76680  Biso   1.000  H 
  N8       1.0000 0.93140  0.89510  0.63280  Biso   1.000  N 
  C28      1.0000 0.94880  0.88250  0.55960  Biso   1.000  C 
  C29      1.0000 0.87410  0.91410  0.50090  Biso   1.000  C 
  H26      1.0000 0.89090  0.91620  0.45060  Biso   1.000  H 
  C30      1.0000 0.78140  0.94040  0.51680  Biso   1.000  C 
  H27      1.0000 0.73040  0.95200  0.47710  Biso   1.000  H 
  C31      1.0000 0.75830  0.95110  0.58920  Biso   1.000  C 
  H28      1.0000 0.69320  0.97330  0.60080  Biso   1.000  H 
  C32      1.0000 0.83480  0.92790  0.64530  Biso   1.000  C 
  H29      1.0000 0.81950  0.93510  0.69570  Biso   1.000  H 
  H30      1.0000 0.01080  0.85260  0.54720  Biso   1.000  H 
  N9       1.0000 0.18380  0.82010  0.97020  Biso   1.000  N 
  C33      1.0000 0.24830  0.85240  0.92150  Biso   1.000  C 
  H31      1.0000 0.23000  0.84590  0.86940  Biso   1.000  H 
  C34      1.0000 0.34420  0.89660  0.94720  Biso   1.000  C 
  H32      1.0000 0.39260  0.91330  0.91310  Biso   1.000  H 
  C35      1.0000 0.36460  0.91430  0.02330  Biso   1.000  C 
  C36      1.0000 0.30080  0.87700  0.07360  Biso   1.000  C 
  C37      1.0000 0.21070  0.82830  0.04420  Biso   1.000  C 
  H33      1.0000 0.16660  0.79980  0.07800  Biso   1.000  H 
  H34      1.0000 0.31690  0.88400  0.12600  Biso   1.000  H 
  H35      1.0000 0.42360  0.95270  0.04090  Biso   1.000  H 
  N10      1.0000 0.94700  0.78300  0.01600  Biso   1.000  N 
  C38      1.0000 0.86950  0.71530  0.02180  Biso   1.000  C 
  H36      1.0000 0.86910  0.64930  0.99530  Biso   1.000  H 
  C39      1.0000 0.78750  0.73800  0.06600  Biso   1.000  C 
  H37      1.0000 0.73020  0.69220  0.06350  Biso   1.000  H 
  C40      1.0000 0.79240  0.82980  0.11370  Biso   1.000  C 
  H38      1.0000 0.74440  0.84350  0.14860  Biso   1.000  H 
  C41      1.0000 0.87540  0.89900  0.10440  Biso   1.000  C 
  H39      1.0000 0.88180  0.96440  0.13160  Biso   1.000  H 
  C42      1.0000 0.94420  0.87320  0.05810  Biso   1.000  C 
  H40      1.0000 0.99710  0.92340  0.05390  Biso   1.000  H 
