data_image0
_cell_length_a       24.79
_cell_length_b       7.525
_cell_length_c       14.185
_cell_angle_alpha    90
_cell_angle_beta     117.23
_cell_angle_gamma    90

_symmetry_space_group_name_H-M    "P 1"
_symmetry_int_tables_number       1

loop_
  _symmetry_equiv_pos_as_xyz
  'x, y, z'

loop_
  _atom_site_label
  _atom_site_occupancy
  _atom_site_fract_x
  _atom_site_fract_y
  _atom_site_fract_z
  _atom_site_thermal_displace_type
  _atom_site_B_iso_or_equiv
  _atom_site_type_symbol
  Mn1      1.0000 0.00000  0.92032  0.25000  Biso   1.000  Mn
  N1       1.0000 0.09034  0.91984  0.24588  Biso   1.000  N 
  C1       1.0000 0.09235  0.93680  0.15414  Biso   1.000  C 
  H1       1.0000 0.05590  0.95020  0.09270  Biso   1.000  H 
  C2       1.0000 0.14505  0.93580  0.14521  Biso   1.000  C 
  C3       1.0000 0.20004  0.91620  0.23459  Biso   1.000  C 
  C4       1.0000 0.19804  0.89880  0.33026  Biso   1.000  C 
  C5       1.0000 0.14317  0.90190  0.33199  Biso   1.000  C 
  H2       1.0000 0.14300  0.89080  0.39710  Biso   1.000  H 
  H3       1.0000 0.23370  0.88520  0.39300  Biso   1.000  H 
  C6       1.0000 0.25755  0.91270  0.22666  Biso   1.000  C 
  C7       1.0000 0.31243  0.94770  0.31165  Biso   1.000  C 
  H4       1.0000 0.31470  0.97600  0.37720  Biso   1.000  H 
  C8       1.0000 0.36426  0.94050  0.29929  Biso   1.000  C 
  H5       1.0000 0.40190  0.96490  0.35610  Biso   1.000  H 
  C9       1.0000 0.35992  0.89770  0.20390  Biso   1.000  C 
  H6       1.0000 0.39440  0.88910  0.19400  Biso   1.000  H 
  C10      1.0000 0.30363  0.86730  0.12196  Biso   1.000  C 
  H7       1.0000 0.30090  0.83970  0.05600  Biso   1.000  H 
  N2       1.0000 0.25256  0.87490  0.13085  Biso   1.000  N 
  H8       1.0000 0.14380  0.94820  0.07900  Biso   1.000  H 
  N3       1.0000 0.03281  0.71230  0.37439  Biso   1.000  N 
  C11      1.0000 0.03871  0.57240  0.40706  Biso   1.000  C 
  N4       1.0000 0.03450  0.41890  0.44900  Biso   1.000  N 
  C12      1.0000 0.03863  0.27120  0.40621  Biso   1.000  C 
  N5       1.0000 0.03225  0.13200  0.37206  Biso   1.000  N 
  N6       1.0000 0.96775  0.13200  0.12794  Biso   1.000  N 
  C13      1.0000 0.96137  0.27120  0.09379  Biso   1.000  C 
  N7       1.0000 0.96550  0.41890  0.05100  Biso   1.000  N 
  C14      1.0000 0.96129  0.57240  0.09294  Biso   1.000  C 
  N8       1.0000 0.96719  0.71230  0.12561  Biso   1.000  N 
  N9       1.0000 0.90966  0.91984  0.25412  Biso   1.000  N 
  C15      1.0000 0.90765  0.93680  0.34586  Biso   1.000  C 
  H9       1.0000 0.94410  0.95020  0.40730  Biso   1.000  H 
  C16      1.0000 0.85495  0.93580  0.35479  Biso   1.000  C 
  C17      1.0000 0.79996  0.91620  0.26541  Biso   1.000  C 
  C18      1.0000 0.74245  0.91270  0.27334  Biso   1.000  C 
  C19      1.0000 0.68757  0.94770  0.18835  Biso   1.000  C 
  H10      1.0000 0.68530  0.97600  0.12280  Biso   1.000  H 
  C20      1.0000 0.63574  0.94050  0.20071  Biso   1.000  C 
  H11      1.0000 0.59810  0.96490  0.14390  Biso   1.000  H 
  C21      1.0000 0.64008  0.89770  0.29610  Biso   1.000  C 
  H12      1.0000 0.60560  0.88910  0.30600  Biso   1.000  H 
  C22      1.0000 0.69637  0.86730  0.37804  Biso   1.000  C 
  H13      1.0000 0.69910  0.83970  0.44400  Biso   1.000  H 
  N10      1.0000 0.74744  0.87490  0.36915  Biso   1.000  N 
  C23      1.0000 0.80196  0.89880  0.16974  Biso   1.000  C 
  H14      1.0000 0.76630  0.88520  0.10700  Biso   1.000  H 
  C24      1.0000 0.85683  0.90190  0.16801  Biso   1.000  C 
  H15      1.0000 0.85700  0.89080  0.10290  Biso   1.000  H 
  H16      1.0000 0.85620  0.94820  0.42100  Biso   1.000  H 
