data_image0
_cell_length_a       14.6045
_cell_length_b       10.7385
_cell_length_c       9.9229
_cell_angle_alpha    90
_cell_angle_beta     90
_cell_angle_gamma    90

_symmetry_space_group_name_H-M    "P 1"
_symmetry_int_tables_number       1

loop_
  _symmetry_equiv_pos_as_xyz
  'x, y, z'

loop_
  _atom_site_label
  _atom_site_occupancy
  _atom_site_fract_x
  _atom_site_fract_y
  _atom_site_fract_z
  _atom_site_thermal_displace_type
  _atom_site_B_iso_or_equiv
  _atom_site_type_symbol
  Cd1      1.0000 0.38786  0.03210  0.30158  Biso   1.000  Cd
  N1       1.0000 0.27229  0.04499  0.15333  Biso   1.000  N 
  C1       1.0000 0.22198  0.15118  0.16303  Biso   1.000  C 
  H1       1.0000 0.23139  0.21830  0.22850  Biso   1.000  H 
  C2       1.0000 0.15630  0.14788  0.06593  Biso   1.000  C 
  H2       1.0000 0.11009  0.21220  0.04914  Biso   1.000  H 
  N2       1.0000 0.16603  0.03964  0.99622  Biso   1.000  N 
  Cd2      1.0000 0.11214  0.96790  0.80158  Biso   1.000  Cd
  N3       1.0000 0.06421  0.77669  0.79670  Biso   1.000  N 
  C3       1.0000 0.10131  0.69648  0.88763  Biso   1.000  C 
  C4       1.0000 0.05768  0.58520  0.87508  Biso   1.000  C 
  H3       1.0000 0.07020  0.50999  0.92788  Biso   1.000  H 
  N4       1.0000 0.99361  0.59664  0.77639  Biso   1.000  N 
  C5       1.0000 0.99764  0.71498  0.72795  Biso   1.000  C 
  H4       1.0000 0.95931  0.74970  0.65612  Biso   1.000  H 
  Cd3      1.0000 0.88786  0.46790  0.69842  Biso   1.000  Cd
  N5       1.0000 0.93579  0.27669  0.70330  Biso   1.000  N 
  C6       1.0000 0.89869  0.19648  0.61237  Biso   1.000  C 
  C7       1.0000 0.94232  0.08520  0.62492  Biso   1.000  C 
  H5       1.0000 0.92980  0.00999  0.57212  Biso   1.000  H 
  N6       1.0000 0.00639  0.09664  0.72361  Biso   1.000  N 
  C8       1.0000 0.00236  0.21498  0.77205  Biso   1.000  C 
  H6       1.0000 0.04069  0.24970  0.84388  Biso   1.000  H 
  H7       1.0000 0.84920  0.21553  0.54894  Biso   1.000  H 
  N7       1.0000 0.77229  0.45501  0.84667  Biso   1.000  N 
  C9       1.0000 0.72198  0.34882  0.83697  Biso   1.000  C 
  H8       1.0000 0.73139  0.28170  0.77150  Biso   1.000  H 
  C10      1.0000 0.65630  0.35212  0.93407  Biso   1.000  C 
  H9       1.0000 0.61009  0.28780  0.95086  Biso   1.000  H 
  N8       1.0000 0.66603  0.46036  0.00378  Biso   1.000  N 
  C11      1.0000 0.73771  0.52395  0.94976  Biso   1.000  C 
  H10      1.0000 0.76045  0.60518  0.97985  Biso   1.000  H 
  Cd4      1.0000 0.61214  0.53210  0.19842  Biso   1.000  Cd
  N9       1.0000 0.50639  0.40336  0.27639  Biso   1.000  N 
  C12      1.0000 0.44232  0.41480  0.37508  Biso   1.000  C 
  H11      1.0000 0.42980  0.49001  0.42788  Biso   1.000  H 
  C13      1.0000 0.39869  0.30352  0.38763  Biso   1.000  C 
  H12      1.0000 0.34920  0.28447  0.45106  Biso   1.000  H 
  N10      1.0000 0.43579  0.22331  0.29670  Biso   1.000  N 
  C14      1.0000 0.50236  0.28502  0.22795  Biso   1.000  C 
  H13      1.0000 0.54069  0.25030  0.15612  Biso   1.000  H 
  N11      1.0000 0.56421  0.72331  0.20330  Biso   1.000  N 
  C15      1.0000 0.60131  0.80352  0.11237  Biso   1.000  C 
  C16      1.0000 0.55768  0.91480  0.12492  Biso   1.000  C 
  H14      1.0000 0.57020  0.99001  0.07212  Biso   1.000  H 
  N12      1.0000 0.49361  0.90336  0.22361  Biso   1.000  N 
  C17      1.0000 0.49764  0.78502  0.27205  Biso   1.000  C 
  H15      1.0000 0.45931  0.75030  0.34388  Biso   1.000  H 
  H16      1.0000 0.65080  0.78447  0.04894  Biso   1.000  H 
  N13      1.0000 0.72771  0.54499  0.34667  Biso   1.000  N 
  C18      1.0000 0.76229  0.47605  0.44976  Biso   1.000  C 
  H17      1.0000 0.73955  0.39482  0.47985  Biso   1.000  H 
  N14      1.0000 0.83397  0.53964  0.50378  Biso   1.000  N 
  C19      1.0000 0.84370  0.64788  0.43407  Biso   1.000  C 
  H18      1.0000 0.88991  0.71220  0.45086  Biso   1.000  H 
  C20      1.0000 0.77802  0.65118  0.33697  Biso   1.000  C 
  H19      1.0000 0.76861  0.71830  0.27150  Biso   1.000  H 
  H20      1.0000 0.15080  0.71553  0.95106  Biso   1.000  H 
  N15      1.0000 0.22771  0.95501  0.65333  Biso   1.000  N 
  C21      1.0000 0.27802  0.84882  0.66303  Biso   1.000  C 
  H21      1.0000 0.26861  0.78170  0.72850  Biso   1.000  H 
  C22      1.0000 0.34370  0.85212  0.56593  Biso   1.000  C 
  H22      1.0000 0.38991  0.78780  0.54914  Biso   1.000  H 
  N16      1.0000 0.33397  0.96036  0.49622  Biso   1.000  N 
  C23      1.0000 0.26229  0.02395  0.55024  Biso   1.000  C 
  H23      1.0000 0.23955  0.10518  0.52015  Biso   1.000  H 
  C24      1.0000 0.23771  0.97605  0.05024  Biso   1.000  C 
  H24      1.0000 0.26045  0.89482  0.02015  Biso   1.000  H 
