data_image0
_cell_length_a       14.3999
_cell_length_b       10.7847
_cell_length_c       9.8963
_cell_angle_alpha    90
_cell_angle_beta     90
_cell_angle_gamma    90

_symmetry_space_group_name_H-M    "P 1"
_symmetry_int_tables_number       1

loop_
  _symmetry_equiv_pos_as_xyz
  'x, y, z'

loop_
  _atom_site_label
  _atom_site_occupancy
  _atom_site_fract_x
  _atom_site_fract_y
  _atom_site_fract_z
  _atom_site_thermal_displace_type
  _atom_site_B_iso_or_equiv
  _atom_site_type_symbol
  Cd1      1.0000 0.11028  0.03473  0.80628  Biso   1.000  Cd
  N1       1.0000 0.07030  0.23060  0.81370  Biso   1.000  N 
  C1       1.0000 0.10480  0.32160  0.89500  Biso   1.000  C 
  H1       1.0000 0.15190  0.31040  0.95990  Biso   1.000  H 
  C2       1.0000 0.06080  0.42880  0.86610  Biso   1.000  C 
  H2       1.0000 0.07150  0.50500  0.90510  Biso   1.000  H 
  N2       1.0000 0.99590  0.40750  0.76800  Biso   1.000  N 
  Cd2      1.0000 0.88972  0.53473  0.69372  Biso   1.000  Cd
  N3       1.0000 0.83270  0.46940  0.50170  Biso   1.000  N 
  C3       1.0000 0.85020  0.35960  0.43490  Biso   1.000  C 
  C4       1.0000 0.78810  0.34660  0.33340  Biso   1.000  C 
  H3       1.0000 0.78360  0.28080  0.27410  Biso   1.000  H 
  N4       1.0000 0.73060  0.44810  0.33210  Biso   1.000  N 
  C5       1.0000 0.76050  0.51760  0.43490  Biso   1.000  C 
  H4       1.0000 0.73400  0.59370  0.45760  Biso   1.000  H 
  Cd3      1.0000 0.61028  0.46527  0.19372  Biso   1.000  Cd
  N5       1.0000 0.57030  0.26940  0.18630  Biso   1.000  N 
  C6       1.0000 0.60480  0.17840  0.10500  Biso   1.000  C 
  H5       1.0000 0.65190  0.18960  0.04010  Biso   1.000  H 
  C7       1.0000 0.56080  0.07120  0.13390  Biso   1.000  C 
  H6       1.0000 0.57150  0.99500  0.09490  Biso   1.000  H 
  N6       1.0000 0.49590  0.09250  0.23200  Biso   1.000  N 
  Cd4      1.0000 0.38972  0.96527  0.30628  Biso   1.000  Cd
  N7       1.0000 0.26940  0.94810  0.16790  Biso   1.000  N 
  C8       1.0000 0.21190  0.84660  0.16660  Biso   1.000  C 
  H7       1.0000 0.21640  0.78080  0.22590  Biso   1.000  H 
  C9       1.0000 0.14980  0.85960  0.06510  Biso   1.000  C 
  H8       1.0000 0.10300  0.80450  0.04220  Biso   1.000  H 
  N8       1.0000 0.16730  0.96940  0.99830  Biso   1.000  N 
  C10      1.0000 0.23950  0.01760  0.06510  Biso   1.000  C 
  H9       1.0000 0.26600  0.09370  0.04240  Biso   1.000  H 
  N9       1.0000 0.42970  0.76940  0.31370  Biso   1.000  N 
  C11      1.0000 0.39520  0.67840  0.39500  Biso   1.000  C 
  H10      1.0000 0.34810  0.68960  0.45990  Biso   1.000  H 
  C12      1.0000 0.43920  0.57120  0.36610  Biso   1.000  C 
  H11      1.0000 0.42850  0.49500  0.40510  Biso   1.000  H 
  N10      1.0000 0.50410  0.59250  0.26800  Biso   1.000  N 
  C13      1.0000 0.49450  0.71250  0.24030  Biso   1.000  C 
  H12      1.0000 0.53040  0.75260  0.17500  Biso   1.000  H 
  N11      1.0000 0.33270  0.03060  0.49830  Biso   1.000  N 
  C14      1.0000 0.35020  0.14040  0.56510  Biso   1.000  C 
  C15      1.0000 0.28810  0.15340  0.66660  Biso   1.000  C 
  H13      1.0000 0.28360  0.21920  0.72590  Biso   1.000  H 
  N12      1.0000 0.23060  0.05190  0.66790  Biso   1.000  N 
  C16      1.0000 0.26050  0.98240  0.56510  Biso   1.000  C 
  H14      1.0000 0.23400  0.90630  0.54240  Biso   1.000  H 
  H15      1.0000 0.39700  0.19550  0.54220  Biso   1.000  H 
  C17      1.0000 0.50550  0.21250  0.25970  Biso   1.000  C 
  H16      1.0000 0.46960  0.25260  0.32500  Biso   1.000  H 
  N13      1.0000 0.66730  0.53060  0.00170  Biso   1.000  N 
  C18      1.0000 0.73950  0.48240  0.93490  Biso   1.000  C 
  H17      1.0000 0.76600  0.40630  0.95760  Biso   1.000  H 
  N14      1.0000 0.76940  0.55190  0.83210  Biso   1.000  N 
  C19      1.0000 0.71190  0.65340  0.83340  Biso   1.000  C 
  H18      1.0000 0.71640  0.71920  0.77410  Biso   1.000  H 
  C20      1.0000 0.64980  0.64040  0.93490  Biso   1.000  C 
  H19      1.0000 0.60300  0.69550  0.95780  Biso   1.000  H 
  H20      1.0000 0.89700  0.30450  0.45780  Biso   1.000  H 
  N15      1.0000 0.92970  0.73060  0.68630  Biso   1.000  N 
  C21      1.0000 0.89520  0.82160  0.60500  Biso   1.000  C 
  H21      1.0000 0.84810  0.81040  0.54010  Biso   1.000  H 
  C22      1.0000 0.93920  0.92880  0.63390  Biso   1.000  C 
  N16      1.0000 0.00410  0.90750  0.73200  Biso   1.000  N 
  C23      1.0000 0.99450  0.78750  0.75970  Biso   1.000  C 
  H22      1.0000 0.03040  0.74740  0.82500  Biso   1.000  H 
  H23      1.0000 0.92850  0.00500  0.59490  Biso   1.000  H 
  C24      1.0000 0.00550  0.28750  0.74030  Biso   1.000  C 
  H24      1.0000 0.96960  0.24740  0.67500  Biso   1.000  H 
