data_image0
_cell_length_a       26.717
_cell_length_b       7.4853
_cell_length_c       20.601
_cell_angle_alpha    90
_cell_angle_beta     117.906
_cell_angle_gamma    90

_symmetry_space_group_name_H-M    "P 1"
_symmetry_int_tables_number       1

loop_
  _symmetry_equiv_pos_as_xyz
  'x, y, z'

loop_
  _atom_site_label
  _atom_site_occupancy
  _atom_site_fract_x
  _atom_site_fract_y
  _atom_site_fract_z
  _atom_site_thermal_displace_type
  _atom_site_B_iso_or_equiv
  _atom_site_type_symbol
  Cu1      1.0000 0.09442  0.60016  0.41716  Biso   1.000  Cu
  N1       1.0000 0.08858  0.82140  0.34530  Biso   1.000  N 
  C1       1.0000 0.08496  0.96200  0.32277  Biso   1.000  C 
  N2       1.0000 0.08104  0.11500  0.29091  Biso   1.000  N 
  H1       1.0000 0.07812  0.11973  0.24001  Biso   1.000  H 
  C2       1.0000 0.08087  0.26020  0.32402  Biso   1.000  C 
  N3       1.0000 0.07959  0.39743  0.34758  Biso   1.000  N 
  N4       1.0000 0.01189  0.62087  0.39175  Biso   1.000  N 
  C3       1.0000 0.00369  0.68800  0.44739  Biso   1.000  C 
  C4       1.0000 0.05329  0.74090  0.51136  Biso   1.000  C 
  N5       1.0000 0.10269  0.72150  0.50949  Biso   1.000  N 
  C5       1.0000 0.14921  0.77450  0.56829  Biso   1.000  C 
  C6       1.0000 0.14862  0.84480  0.62978  Biso   1.000  C 
  C7       1.0000 0.09966  0.86260  0.63246  Biso   1.000  C 
  C8       1.0000 0.04875  0.81090  0.57162  Biso   1.000  C 
  C9       1.0000 0.99406  0.82810  0.56632  Biso   1.000  C 
  C10      1.0000 0.94719  0.77980  0.50550  Biso   1.000  C 
  C11      1.0000 0.95038  0.70880  0.44303  Biso   1.000  C 
  C12      1.0000 0.90364  0.66080  0.37601  Biso   1.000  C 
  C13      1.0000 0.91216  0.59870  0.32027  Biso   1.000  C 
  H2       1.0000 0.88140  0.56920  0.27560  Biso   1.000  H 
  C14      1.0000 0.96659  0.57920  0.32985  Biso   1.000  C 
  H3       1.0000 0.97160  0.53490  0.29110  Biso   1.000  H 
  H4       1.0000 0.86710  0.67170  0.37000  Biso   1.000  H 
  H5       1.0000 0.91200  0.79270  0.50390  Biso   1.000  H 
  H6       1.0000 0.99060  0.87410  0.60600  Biso   1.000  H 
  H7       1.0000 0.09940  0.90880  0.67420  Biso   1.000  H 
  H8       1.0000 0.18240  0.88010  0.66970  Biso   1.000  H 
  H9       1.0000 0.18380  0.76360  0.56800  Biso   1.000  H 
  O1       1.0000 0.17539  0.57811  0.45487  Biso   1.000  O 
  C15      1.0000 0.20358  0.47090  0.50841  Biso   1.000  C 
  C16      1.0000 0.26640  0.47590  0.53684  Biso   1.000  C 
  H10      1.0000 0.27510  0.44510  0.49800  Biso   1.000  H 
  H11      1.0000 0.28410  0.39180  0.57640  Biso   1.000  H 
  H12      1.0000 0.28020  0.59380  0.55440  Biso   1.000  H 
  O2       1.0000 0.18161  0.37388  0.53669  Biso   1.000  O 
