data_image0
_cell_length_a       9.886
_cell_length_b       17.388
_cell_length_c       6.029
_cell_angle_alpha    90
_cell_angle_beta     103.33
_cell_angle_gamma    90

_symmetry_space_group_name_H-M    "P 1"
_symmetry_int_tables_number       1

loop_
  _symmetry_equiv_pos_as_xyz
  'x, y, z'

loop_
  _atom_site_label
  _atom_site_occupancy
  _atom_site_fract_x
  _atom_site_fract_y
  _atom_site_fract_z
  _atom_site_thermal_displace_type
  _atom_site_B_iso_or_equiv
  _atom_site_type_symbol
  Cr1      1.0000 0.00000  0.00000  0.00000  Biso   1.000  Cr
  O1       1.0000 0.12020  0.07680  0.18700  Biso   1.000  O 
  C1       1.0000 0.22820  0.09560  0.11260  Biso   1.000  C 
  O2       1.0000 0.31390  0.14300  0.19490  Biso   1.000  O 
  Na1      1.0000 0.50000  0.15350  0.00000  Biso   1.000  Na
  O3       1.0000 0.66200  0.06260  0.19240  Biso   1.000  O 
  C2       1.0000 0.75880  0.05090  0.10530  Biso   1.000  C 
  O4       1.0000 0.85800  0.00280  0.17770  Biso   1.000  O 
  C3       1.0000 0.77180  0.09560  0.88740  Biso   1.000  C 
  O5       1.0000 0.87980  0.07680  0.81300  Biso   1.000  O 
  O6       1.0000 0.68610  0.14300  0.80510  Biso   1.000  O 
  N1       1.0000 0.58360  0.27200  0.22090  Biso   1.000  N 
  C4       1.0000 0.54900  0.33800  0.11560  Biso   1.000  C 
  N2       1.0000 0.59040  0.40810  0.19680  Biso   1.000  N 
  C5       1.0000 0.67510  0.41190  0.40720  Biso   1.000  C 
  C6       1.0000 0.71430  0.34500  0.53180  Biso   1.000  C 
  C7       1.0000 0.66670  0.27630  0.43050  Biso   1.000  C 
  H1       1.0000 0.69470  0.22950  0.51260  Biso   1.000  H 
  H2       1.0000 0.77230  0.34660  0.68330  Biso   1.000  H 
  H3       1.0000 0.70830  0.46080  0.47080  Biso   1.000  H 
  Cr2      1.0000 0.50000  0.50000  0.00000  Biso   1.000  Cr
  O7       1.0000 0.35800  0.50280  0.17770  Biso   1.000  O 
  C8       1.0000 0.25880  0.55090  0.10530  Biso   1.000  C 
  O8       1.0000 0.16200  0.56260  0.19240  Biso   1.000  O 
  Na2      1.0000 0.00000  0.65350  0.00000  Biso   1.000  Na
  N3       1.0000 0.08360  0.77200  0.22090  Biso   1.000  N 
  C9       1.0000 0.04900  0.83800  0.11560  Biso   1.000  C 
  N4       1.0000 0.09040  0.90810  0.19680  Biso   1.000  N 
  C10      1.0000 0.17510  0.91190  0.40720  Biso   1.000  C 
  H4       1.0000 0.20830  0.96080  0.47080  Biso   1.000  H 
  C11      1.0000 0.21430  0.84500  0.53180  Biso   1.000  C 
  C12      1.0000 0.16670  0.77630  0.43050  Biso   1.000  C 
  H5       1.0000 0.19470  0.72950  0.51260  Biso   1.000  H 
  H6       1.0000 0.27230  0.84660  0.68330  Biso   1.000  H 
  C13      1.0000 0.95100  0.83800  0.88440  Biso   1.000  C 
  N5       1.0000 0.90960  0.90810  0.80320  Biso   1.000  N 
  C14      1.0000 0.82490  0.91190  0.59280  Biso   1.000  C 
  C15      1.0000 0.78570  0.84500  0.46820  Biso   1.000  C 
  H7       1.0000 0.72770  0.84660  0.31670  Biso   1.000  H 
  C16      1.0000 0.83330  0.77630  0.56950  Biso   1.000  C 
  H8       1.0000 0.80530  0.72950  0.48740  Biso   1.000  H 
  N6       1.0000 0.91640  0.77200  0.77910  Biso   1.000  N 
  H9       1.0000 0.79170  0.96080  0.52920  Biso   1.000  H 
  O9       1.0000 0.83800  0.56260  0.80760  Biso   1.000  O 
  C17      1.0000 0.74120  0.55090  0.89470  Biso   1.000  C 
  C18      1.0000 0.72820  0.59560  0.11260  Biso   1.000  C 
  O10      1.0000 0.81390  0.64300  0.19490  Biso   1.000  O 
  O11      1.0000 0.62020  0.57680  0.18700  Biso   1.000  O 
  O12      1.0000 0.64200  0.50280  0.82230  Biso   1.000  O 
  O13      1.0000 0.18610  0.64300  0.80510  Biso   1.000  O 
  C19      1.0000 0.27180  0.59560  0.88740  Biso   1.000  C 
  O14      1.0000 0.37980  0.57680  0.81300  Biso   1.000  O 
  N7       1.0000 0.40960  0.40810  0.80320  Biso   1.000  N 
  C20      1.0000 0.32490  0.41190  0.59280  Biso   1.000  C 
  C21      1.0000 0.28570  0.34500  0.46820  Biso   1.000  C 
  C22      1.0000 0.33330  0.27630  0.56950  Biso   1.000  C 
  H10      1.0000 0.30530  0.22950  0.48740  Biso   1.000  H 
  N8       1.0000 0.41640  0.27200  0.77910  Biso   1.000  N 
  C23      1.0000 0.45100  0.33800  0.88440  Biso   1.000  C 
  H11      1.0000 0.22770  0.34660  0.31670  Biso   1.000  H 
  H12      1.0000 0.29170  0.46080  0.52920  Biso   1.000  H 
  O15      1.0000 0.33800  0.06260  0.80760  Biso   1.000  O 
  C24      1.0000 0.24120  0.05090  0.89470  Biso   1.000  C 
  O16      1.0000 0.14200  0.00280  0.82230  Biso   1.000  O 
