data_image0
_cell_length_a       28.9873
_cell_length_b       7.2951
_cell_length_c       13.9898
_cell_angle_alpha    90.003
_cell_angle_beta     103.726
_cell_angle_gamma    89.974

_symmetry_space_group_name_H-M    "P 1"
_symmetry_int_tables_number       1

loop_
  _symmetry_equiv_pos_as_xyz
  'x, y, z'

loop_
  _atom_site_label
  _atom_site_occupancy
  _atom_site_fract_x
  _atom_site_fract_y
  _atom_site_fract_z
  _atom_site_thermal_displace_type
  _atom_site_B_iso_or_equiv
  _atom_site_type_symbol
  Pt1      1.0000 0.12207  0.49884  0.99856  Biso   1.000  Pt
  C1       1.0000 0.07250  0.30060  0.99510  Biso   1.000  C 
  N1       1.0000 0.04600  0.18470  0.99590  Biso   1.000  N 
  Fe1      1.0000 0.00000  0.00000  0.00000  Biso   1.000  Fe
  N2       1.0000 0.95400  0.81530  0.00410  Biso   1.000  N 
  C2       1.0000 0.92750  0.69940  0.00490  Biso   1.000  C 
  Pt2      1.0000 0.87793  0.50116  0.00144  Biso   1.000  Pt
  C3       1.0000 0.92790  0.30700  0.00870  Biso   1.000  C 
  N3       1.0000 0.95470  0.19150  0.00830  Biso   1.000  N 
  C4       1.0000 0.82980  0.69390  0.99910  Biso   1.000  C 
  N4       1.0000 0.80080  0.80800  0.99610  Biso   1.000  N 
  Fe2      1.0000 0.75346  0.99960  0.00309  Biso   1.000  Fe
  N5       1.0000 0.70760  0.80510  0.01140  Biso   1.000  N 
  C5       1.0000 0.67930  0.69200  0.00940  Biso   1.000  C 
  Pt3      1.0000 0.62954  0.49951  0.00201  Biso   1.000  Pt
  C6       1.0000 0.67860  0.29900  0.00740  Biso   1.000  C 
  N6       1.0000 0.70640  0.19060  0.00800  Biso   1.000  N 
  C7       1.0000 0.57870  0.68700  0.99470  Biso   1.000  C 
  N7       1.0000 0.55050  0.79890  0.98980  Biso   1.000  N 
  Fe3      1.0000 0.50000  0.00000  0.00000  Biso   1.000  Fe
  N8       1.0000 0.47490  0.00820  0.84280  Biso   1.000  N 
  C8       1.0000 0.42890  0.03500  0.80410  Biso   1.000  C 
  H1       1.0000 0.40720  0.04010  0.84540  Biso   1.000  H 
  C9       1.0000 0.41260  0.05700  0.70250  Biso   1.000  C 
  H2       1.0000 0.37960  0.07510  0.67540  Biso   1.000  H 
  C10      1.0000 0.44360  0.05200  0.63960  Biso   1.000  C 
  C11      1.0000 0.48990  0.01400  0.68160  Biso   1.000  C 
  H3       1.0000 0.51210  0.00170  0.64180  Biso   1.000  H 
  C12      1.0000 0.50470  0.99200  0.78460  Biso   1.000  C 
  H4       1.0000 0.53710  0.96410  0.81310  Biso   1.000  H 
  S1       1.0000 0.42873  0.08560  0.51410  Biso   1.000  S 
  C13      1.0000 0.37340  0.21300  0.49710  Biso   1.000  C 
  H5       1.0000 0.37600  0.29370  0.55510  Biso   1.000  H 
  H6       1.0000 0.37090  0.29420  0.43920  Biso   1.000  H 
  S2       1.0000 0.31827  0.08770  0.47980  Biso   1.000  S 
  C14      1.0000 0.30200  0.05000  0.35090  Biso   1.000  C 
  C15      1.0000 0.33330  0.05700  0.29030  Biso   1.000  C 
  C16      1.0000 0.31650  0.02800  0.19070  Biso   1.000  C 
  H7       1.0000 0.33900  0.02100  0.15130  Biso   1.000  H 
  N9       1.0000 0.26980  0.00870  0.14550  Biso   1.000  N 
  Fe4      1.0000 0.24654  0.00040  0.99691  Biso   1.000  Fe
  N10      1.0000 0.29240  0.19490  0.98860  Biso   1.000  N 
  C17      1.0000 0.32070  0.30800  0.99060  Biso   1.000  C 
  Pt4      1.0000 0.37046  0.50049  0.99799  Biso   1.000  Pt
  C18      1.0000 0.32140  0.70100  0.99260  Biso   1.000  C 
  N11      1.0000 0.29360  0.80940  0.99200  Biso   1.000  N 
  C19      1.0000 0.42130  0.31300  0.00530  Biso   1.000  C 
  N12      1.0000 0.44950  0.20110  0.01020  Biso   1.000  N 
  C20      1.0000 0.42080  0.69200  0.00520  Biso   1.000  C 
  N13      1.0000 0.44830  0.80310  0.00570  Biso   1.000  N 
  N14      1.0000 0.19920  0.19200  0.00390  Biso   1.000  N 
  C21      1.0000 0.17020  0.30610  0.00090  Biso   1.000  C 
  N15      1.0000 0.20020  0.80410  0.00640  Biso   1.000  N 
  C22      1.0000 0.17020  0.68760  0.00480  Biso   1.000  C 
  N16      1.0000 0.22310  0.99130  0.84840  Biso   1.000  N 
  C23      1.0000 0.17810  0.96700  0.80410  Biso   1.000  C 
  H8       1.0000 0.15530  0.96620  0.84300  Biso   1.000  H 
  C24      1.0000 0.16250  0.94100  0.70400  Biso   1.000  C 
  H9       1.0000 0.12980  0.91900  0.67590  Biso   1.000  H 
  C25      1.0000 0.19440  0.94800  0.64400  Biso   1.000  C 
  C26      1.0000 0.24220  0.98800  0.69050  Biso   1.000  C 
  C27      1.0000 0.25470  0.00700  0.79180  Biso   1.000  C 
  H10      1.0000 0.28690  0.03280  0.82280  Biso   1.000  H 
  H11      1.0000 0.26530  0.00020  0.65290  Biso   1.000  H 
  S3       1.0000 0.17897  0.91560  0.51500  Biso   1.000  S 
  C28      1.0000 0.12430  0.78800  0.49730  Biso   1.000  C 
  H12      1.0000 0.12690  0.70600  0.55470  Biso   1.000  H 
  H13      1.0000 0.12180  0.70850  0.43890  Biso   1.000  H 
  S4       1.0000 0.06877  0.91400  0.48080  Biso   1.000  S 
  C29      1.0000 0.05360  0.94900  0.35040  Biso   1.000  C 
  C30      1.0000 0.00620  0.98500  0.30620  Biso   1.000  C 
  C31      1.0000 0.99190  0.00300  0.20590  Biso   1.000  C 
  H14      1.0000 0.95920  0.02470  0.17750  Biso   1.000  H 
  N17      1.0000 0.02170  0.99230  0.14580  Biso   1.000  N 
  C32      1.0000 0.06780  0.96800  0.18970  Biso   1.000  C 
  C33      1.0000 0.08530  0.94300  0.29080  Biso   1.000  C 
  H15      1.0000 0.11810  0.92330  0.31790  Biso   1.000  H 
  H16      1.0000 0.08990  0.96760  0.14940  Biso   1.000  H 
  H17      1.0000 0.98380  0.99790  0.34540  Biso   1.000  H 
  C34      1.0000 0.23910  0.99400  0.20450  Biso   1.000  C 
  H18      1.0000 0.20670  0.96980  0.17500  Biso   1.000  H 
  C35      1.0000 0.25280  0.01300  0.30580  Biso   1.000  C 
  H19      1.0000 0.23020  0.00210  0.34480  Biso   1.000  H 
  H20      1.0000 0.36600  0.08220  0.31690  Biso   1.000  H 
  N18      1.0000 0.55170  0.19690  0.99430  Biso   1.000  N 
  C36      1.0000 0.57920  0.30800  0.99480  Biso   1.000  C 
  N19      1.0000 0.52510  0.99180  0.15720  Biso   1.000  N 
  C37      1.0000 0.57110  0.96500  0.19590  Biso   1.000  C 
  H21      1.0000 0.59280  0.95990  0.15460  Biso   1.000  H 
  C38      1.0000 0.58740  0.94300  0.29750  Biso   1.000  C 
  H22      1.0000 0.62040  0.92490  0.32460  Biso   1.000  H 
  C39      1.0000 0.55640  0.94800  0.36040  Biso   1.000  C 
  C40      1.0000 0.51010  0.98600  0.31840  Biso   1.000  C 
  H23      1.0000 0.48790  0.99830  0.35820  Biso   1.000  H 
  C41      1.0000 0.49530  0.00800  0.21540  Biso   1.000  C 
  H24      1.0000 0.46290  0.03590  0.18690  Biso   1.000  H 
  S5       1.0000 0.57127  0.91440  0.48590  Biso   1.000  S 
  C42      1.0000 0.62660  0.78700  0.50290  Biso   1.000  C 
  H25      1.0000 0.62910  0.70580  0.56080  Biso   1.000  H 
  H26      1.0000 0.62400  0.70630  0.44490  Biso   1.000  H 
  S6       1.0000 0.68173  0.91230  0.52020  Biso   1.000  S 
  C43      1.0000 0.69800  0.95000  0.64910  Biso   1.000  C 
  C44      1.0000 0.66670  0.94300  0.70970  Biso   1.000  C 
  H27      1.0000 0.63400  0.91780  0.68310  Biso   1.000  H 
  C45      1.0000 0.68350  0.97200  0.80930  Biso   1.000  C 
  H28      1.0000 0.66100  0.97900  0.84870  Biso   1.000  H 
  N20      1.0000 0.73020  0.99130  0.85450  Biso   1.000  N 
  C46      1.0000 0.76090  0.00600  0.79550  Biso   1.000  C 
  H29      1.0000 0.79330  0.03020  0.82500  Biso   1.000  H 
  C47      1.0000 0.74720  0.98700  0.69420  Biso   1.000  C 
  H30      1.0000 0.76980  0.99790  0.65520  Biso   1.000  H 
  N21      1.0000 0.79980  0.19590  0.99360  Biso   1.000  N 
  C48      1.0000 0.82980  0.31240  0.99520  Biso   1.000  C 
  N22      1.0000 0.77690  0.00870  0.15160  Biso   1.000  N 
  C49      1.0000 0.82190  0.03300  0.19590  Biso   1.000  C 
  H31      1.0000 0.84470  0.03380  0.15700  Biso   1.000  H 
  C50      1.0000 0.83750  0.05900  0.29600  Biso   1.000  C 
  H32      1.0000 0.87020  0.08100  0.32410  Biso   1.000  H 
  C51      1.0000 0.80560  0.05200  0.35600  Biso   1.000  C 
  C52      1.0000 0.75780  0.01200  0.30950  Biso   1.000  C 
  C53      1.0000 0.74530  0.99300  0.20820  Biso   1.000  C 
  H33      1.0000 0.71310  0.96720  0.17720  Biso   1.000  H 
  H34      1.0000 0.73470  0.99980  0.34710  Biso   1.000  H 
  S7       1.0000 0.82103  0.08440  0.48500  Biso   1.000  S 
  C54      1.0000 0.87570  0.21200  0.50270  Biso   1.000  C 
  H35      1.0000 0.87820  0.29150  0.56110  Biso   1.000  H 
  H36      1.0000 0.87310  0.29400  0.44530  Biso   1.000  H 
  S8       1.0000 0.93123  0.08600  0.51920  Biso   1.000  S 
  C55      1.0000 0.94640  0.05100  0.64960  Biso   1.000  C 
  C56      1.0000 0.99380  0.01500  0.69380  Biso   1.000  C 
  H37      1.0000 0.01620  0.00210  0.65460  Biso   1.000  H 
  C57      1.0000 0.00810  0.99700  0.79410  Biso   1.000  C 
  H38      1.0000 0.04080  0.97530  0.82250  Biso   1.000  H 
  N23      1.0000 0.97830  0.00770  0.85420  Biso   1.000  N 
  C58      1.0000 0.93220  0.03200  0.81030  Biso   1.000  C 
  H39      1.0000 0.91010  0.03240  0.85060  Biso   1.000  H 
  C59      1.0000 0.91470  0.05700  0.70920  Biso   1.000  C 
  H40      1.0000 0.88190  0.07670  0.68210  Biso   1.000  H 
  N24      1.0000 0.04530  0.80850  0.99170  Biso   1.000  N 
  C60      1.0000 0.07210  0.69300  0.99130  Biso   1.000  C 
