data_image0
_cell_length_a       11.9935
_cell_length_b       11.9935
_cell_length_c       10.8139
_cell_angle_alpha    90
_cell_angle_beta     90
_cell_angle_gamma    90

_symmetry_space_group_name_H-M    "P 1"
_symmetry_int_tables_number       1

loop_
  _symmetry_equiv_pos_as_xyz
  'x, y, z'

loop_
  _atom_site_label
  _atom_site_occupancy
  _atom_site_fract_x
  _atom_site_fract_y
  _atom_site_fract_z
  _atom_site_thermal_displace_type
  _atom_site_B_iso_or_equiv
  _atom_site_type_symbol
  C1       1.0000 0.18760  0.67860  0.76030  Biso   1.000  C 
  N1       1.0000 0.21480  0.78520  0.75000  Biso   1.000  N 
  Zn1      1.0000 0.09380  0.90620  0.75000  Biso   1.000  Zn
  O1       1.0000 0.21700  0.03820  0.76530  Biso   1.000  O 
  C2       1.0000 0.20390  0.09770  0.86250  Biso   1.000  C 
  O2       1.0000 0.26200  0.18090  0.89030  Biso   1.000  O 
  H1       1.0000 0.29689  0.16888  0.97250  Biso   1.000  H 
  C3       1.0000 0.10870  0.06510  0.94490  Biso   1.000  C 
  C4       1.0000 0.06510  0.10870  0.05510  Biso   1.000  C 
  C5       1.0000 0.09770  0.20390  0.13750  Biso   1.000  C 
  O3       1.0000 0.03820  0.21700  0.23470  Biso   1.000  O 
  Zn2      1.0000 0.90620  0.09380  0.25000  Biso   1.000  Zn
  N2       1.0000 0.78520  0.21480  0.25000  Biso   1.000  N 
  C6       1.0000 0.81240  0.32140  0.26030  Biso   1.000  C 
  C7       1.0000 0.73310  0.40670  0.26040  Biso   1.000  C 
  H2       1.0000 0.75490  0.48090  0.26730  Biso   1.000  H 
  C8       1.0000 0.62100  0.37900  0.25000  Biso   1.000  C 
  C9       1.0000 0.53450  0.46550  0.25000  Biso   1.000  C 
  N3       1.0000 0.45580  0.47360  0.33750  Biso   1.000  N 
  Zn3      1.0000 0.40620  0.40620  0.50000  Biso   1.000  Zn
  N4       1.0000 0.28520  0.28520  0.50000  Biso   1.000  N 
  C10      1.0000 0.17860  0.31240  0.51030  Biso   1.000  C 
  H3       1.0000 0.15980  0.38740  0.51770  Biso   1.000  H 
  C11      1.0000 0.09330  0.23310  0.51040  Biso   1.000  C 
  H4       1.0000 0.01910  0.25490  0.51730  Biso   1.000  H 
  C12      1.0000 0.12100  0.12100  0.50000  Biso   1.000  C 
  C13      1.0000 0.03450  0.03450  0.50000  Biso   1.000  C 
  N5       1.0000 0.02640  0.95580  0.58750  Biso   1.000  N 
  C14      1.0000 0.93490  0.89130  0.55510  Biso   1.000  C 
  C15      1.0000 0.89130  0.93490  0.44490  Biso   1.000  C 
  C16      1.0000 0.79610  0.90230  0.36250  Biso   1.000  C 
  O4       1.0000 0.73800  0.81910  0.39030  Biso   1.000  O 
  H5       1.0000 0.70311  0.83112  0.47250  Biso   1.000  H 
  O5       1.0000 0.78300  0.96180  0.26530  Biso   1.000  O 
  N6       1.0000 0.95580  0.02640  0.41250  Biso   1.000  N 
  C17      1.0000 0.90230  0.79610  0.63750  Biso   1.000  C 
  O6       1.0000 0.81910  0.73800  0.60970  Biso   1.000  O 
  H6       1.0000 0.83112  0.70311  0.52750  Biso   1.000  H 
  O7       1.0000 0.96180  0.78300  0.73470  Biso   1.000  O 
  C18      1.0000 0.23310  0.09330  0.48960  Biso   1.000  C 
  H7       1.0000 0.25490  0.01910  0.48270  Biso   1.000  H 
  C19      1.0000 0.31240  0.17860  0.48970  Biso   1.000  C 
  H8       1.0000 0.38740  0.15980  0.48230  Biso   1.000  H 
  N7       1.0000 0.47360  0.45580  0.66250  Biso   1.000  N 
  C20      1.0000 0.46550  0.53450  0.75000  Biso   1.000  C 
  N8       1.0000 0.54420  0.52640  0.83750  Biso   1.000  N 
  Zn4      1.0000 0.59380  0.59380  0.00000  Biso   1.000  Zn
  N9       1.0000 0.71480  0.71480  0.00000  Biso   1.000  N 
  C21      1.0000 0.82140  0.68760  0.01030  Biso   1.000  C 
  H9       1.0000 0.84020  0.61260  0.01770  Biso   1.000  H 
  C22      1.0000 0.90670  0.76690  0.01040  Biso   1.000  C 
  H10      1.0000 0.98090  0.74510  0.01730  Biso   1.000  H 
  C23      1.0000 0.87900  0.87900  0.00000  Biso   1.000  C 
  C24      1.0000 0.96550  0.96550  0.00000  Biso   1.000  C 
  N10      1.0000 0.97360  0.04420  0.08750  Biso   1.000  N 
  N11      1.0000 0.04420  0.97360  0.91250  Biso   1.000  N 
  C25      1.0000 0.76690  0.90670  0.98960  Biso   1.000  C 
  H11      1.0000 0.74510  0.98090  0.98270  Biso   1.000  H 
  C26      1.0000 0.68760  0.82140  0.98970  Biso   1.000  C 
  H12      1.0000 0.61260  0.84020  0.98230  Biso   1.000  H 
  N12      1.0000 0.52640  0.54420  0.16250  Biso   1.000  N 
  C27      1.0000 0.43490  0.60870  0.19490  Biso   1.000  C 
  C28      1.0000 0.40230  0.70390  0.11250  Biso   1.000  C 
  O8       1.0000 0.46180  0.71700  0.01530  Biso   1.000  O 
  O9       1.0000 0.31910  0.76200  0.14030  Biso   1.000  O 
  H13      1.0000 0.33112  0.79689  0.22250  Biso   1.000  H 
  C29      1.0000 0.39130  0.56510  0.30510  Biso   1.000  C 
  C30      1.0000 0.29610  0.59770  0.38750  Biso   1.000  C 
  O10      1.0000 0.23800  0.68090  0.35970  Biso   1.000  O 
  H14      1.0000 0.20311  0.66888  0.27750  Biso   1.000  H 
  O11      1.0000 0.28300  0.53820  0.48470  Biso   1.000  O 
  O12      1.0000 0.71700  0.46180  0.98470  Biso   1.000  O 
  C31      1.0000 0.70390  0.40230  0.88750  Biso   1.000  C 
  O13      1.0000 0.76200  0.31910  0.85970  Biso   1.000  O 
  H15      1.0000 0.79689  0.33112  0.77750  Biso   1.000  H 
  C32      1.0000 0.60870  0.43490  0.80510  Biso   1.000  C 
  C33      1.0000 0.56510  0.39130  0.69490  Biso   1.000  C 
  C34      1.0000 0.59770  0.29610  0.61250  Biso   1.000  C 
  O14      1.0000 0.53820  0.28300  0.51530  Biso   1.000  O 
  O15      1.0000 0.68090  0.23800  0.64030  Biso   1.000  O 
  H16      1.0000 0.66888  0.20311  0.72250  Biso   1.000  H 
  C35      1.0000 0.37900  0.62100  0.75000  Biso   1.000  C 
  C36      1.0000 0.26690  0.59330  0.76040  Biso   1.000  C 
  H17      1.0000 0.24510  0.51910  0.76730  Biso   1.000  H 
  C37      1.0000 0.40670  0.73310  0.73960  Biso   1.000  C 
  H18      1.0000 0.48090  0.75490  0.73270  Biso   1.000  H 
  C38      1.0000 0.32140  0.81240  0.73970  Biso   1.000  C 
  H19      1.0000 0.34020  0.88740  0.73230  Biso   1.000  H 
  C39      1.0000 0.59330  0.26690  0.23960  Biso   1.000  C 
  H20      1.0000 0.51910  0.24510  0.23270  Biso   1.000  H 
  C40      1.0000 0.67860  0.18760  0.23970  Biso   1.000  C 
  H21      1.0000 0.65980  0.11260  0.23230  Biso   1.000  H 
  H22      1.0000 0.88740  0.34020  0.26770  Biso   1.000  H 
  O16      1.0000 0.18090  0.26200  0.10970  Biso   1.000  O 
  H23      1.0000 0.16888  0.29689  0.02750  Biso   1.000  H 
  H24      1.0000 0.11260  0.65980  0.76770  Biso   1.000  H 
