data_image0
_cell_length_a       21.887
_cell_length_b       9.997
_cell_length_c       23.855
_cell_angle_alpha    90
_cell_angle_beta     101.547
_cell_angle_gamma    90

_symmetry_space_group_name_H-M    "P 1"
_symmetry_int_tables_number       1

loop_
  _symmetry_equiv_pos_as_xyz
  'x, y, z'

loop_
  _atom_site_label
  _atom_site_occupancy
  _atom_site_fract_x
  _atom_site_fract_y
  _atom_site_fract_z
  _atom_site_thermal_displace_type
  _atom_site_B_iso_or_equiv
  _atom_site_type_symbol
  Ni1      1.0000 0.44942  0.22242  0.18203  Biso   1.000  Ni
  Ni2      1.0000 0.55058  0.22242  0.31797  Biso   1.000  Ni
  Ni3      1.0000 0.94942  0.72242  0.18203  Biso   1.000  Ni
  Ni4      1.0000 0.05058  0.72242  0.31797  Biso   1.000  Ni
  Ni5      1.0000 0.55058  0.77758  0.81797  Biso   1.000  Ni
  Ni6      1.0000 0.44942  0.77758  0.68203  Biso   1.000  Ni
  Ni7      1.0000 0.05058  0.27758  0.81797  Biso   1.000  Ni
  Ni8      1.0000 0.94942  0.27758  0.68203  Biso   1.000  Ni
  O1       1.0000 0.40814  0.09931  0.23313  Biso   1.000  O 
  O2       1.0000 0.59186  0.09931  0.26687  Biso   1.000  O 
  O3       1.0000 0.90814  0.59931  0.23313  Biso   1.000  O 
  O4       1.0000 0.09186  0.59931  0.26687  Biso   1.000  O 
  O5       1.0000 0.59186  0.90069  0.76687  Biso   1.000  O 
  O6       1.0000 0.40814  0.90069  0.73313  Biso   1.000  O 
  O7       1.0000 0.09186  0.40069  0.76687  Biso   1.000  O 
  O8       1.0000 0.90814  0.40069  0.73313  Biso   1.000  O 
  O9       1.0000 0.43210  0.43429  0.31540  Biso   1.000  O 
  O10      1.0000 0.56790  0.43429  0.18460  Biso   1.000  O 
  O11      1.0000 0.93210  0.93429  0.31540  Biso   1.000  O 
  O12      1.0000 0.06790  0.93429  0.18460  Biso   1.000  O 
  O13      1.0000 0.56790  0.56571  0.68460  Biso   1.000  O 
  O14      1.0000 0.43210  0.56571  0.81540  Biso   1.000  O 
  O15      1.0000 0.06790  0.06571  0.68460  Biso   1.000  O 
  O16      1.0000 0.93210  0.06571  0.81540  Biso   1.000  O 
  O17      1.0000 0.50000  0.33198  0.25000  Biso   1.000  O 
  O18      1.0000 0.00000  0.83198  0.25000  Biso   1.000  O 
  O19      1.0000 0.50000  0.66802  0.75000  Biso   1.000  O 
  O20      1.0000 0.00000  0.16802  0.75000  Biso   1.000  O 
  O21      1.0000 0.50980  0.33258  0.37477  Biso   1.000  O 
  O22      1.0000 0.49020  0.33258  0.12523  Biso   1.000  O 
  O23      1.0000 0.00980  0.83258  0.37477  Biso   1.000  O 
  O24      1.0000 0.99020  0.83258  0.12523  Biso   1.000  O 
  O25      1.0000 0.49020  0.66742  0.62523  Biso   1.000  O 
  O26      1.0000 0.50980  0.66742  0.87477  Biso   1.000  O 
  O27      1.0000 0.99020  0.16742  0.62523  Biso   1.000  O 
  O28      1.0000 0.00980  0.16742  0.87477  Biso   1.000  O 
  N1       1.0000 0.37693  0.36131  0.17364  Biso   1.000  N 
  N2       1.0000 0.62307  0.36131  0.32636  Biso   1.000  N 
  N3       1.0000 0.87693  0.86131  0.17364  Biso   1.000  N 
  N4       1.0000 0.12307  0.86131  0.32636  Biso   1.000  N 
  N5       1.0000 0.62307  0.63869  0.82636  Biso   1.000  N 
  N6       1.0000 0.37693  0.63869  0.67364  Biso   1.000  N 
  N7       1.0000 0.12307  0.13869  0.82636  Biso   1.000  N 
  N8       1.0000 0.87693  0.13869  0.67364  Biso   1.000  N 
  O29      1.0000 0.48114  0.08855  0.31356  Biso   1.000  O 
  O30      1.0000 0.51886  0.08855  0.18644  Biso   1.000  O 
  O31      1.0000 0.98114  0.58855  0.31356  Biso   1.000  O 
  O32      1.0000 0.01886  0.58855  0.18644  Biso   1.000  O 
  O33      1.0000 0.51886  0.91145  0.68644  Biso   1.000  O 
  O34      1.0000 0.48114  0.91145  0.81356  Biso   1.000  O 
  O35      1.0000 0.01886  0.41145  0.68644  Biso   1.000  O 
  O36      1.0000 0.98114  0.41145  0.81356  Biso   1.000  O 
  C1       1.0000 0.36263  0.67581  0.33138  Biso   1.000  C 
  C2       1.0000 0.63737  0.67581  0.16862  Biso   1.000  C 
  C3       1.0000 0.86263  0.17581  0.33138  Biso   1.000  C 
  C4       1.0000 0.13737  0.17581  0.16862  Biso   1.000  C 
  C5       1.0000 0.63737  0.32419  0.66862  Biso   1.000  C 
  C6       1.0000 0.36263  0.32419  0.83138  Biso   1.000  C 
  C7       1.0000 0.13737  0.82419  0.66862  Biso   1.000  C 
  C8       1.0000 0.86263  0.82419  0.83138  Biso   1.000  C 
  C9       1.0000 0.27753  0.54410  0.15355  Biso   1.000  C 
  C10      1.0000 0.72247  0.54410  0.34645  Biso   1.000  C 
  C11      1.0000 0.77753  0.04410  0.15355  Biso   1.000  C 
  C12      1.0000 0.22247  0.04410  0.34645  Biso   1.000  C 
  C13      1.0000 0.72247  0.45590  0.84645  Biso   1.000  C 
  C14      1.0000 0.27753  0.45590  0.65355  Biso   1.000  C 
  C15      1.0000 0.22247  0.95590  0.84645  Biso   1.000  C 
  C16      1.0000 0.77753  0.95590  0.65355  Biso   1.000  C 
  C17      1.0000 0.43434  0.86000  0.34936  Biso   1.000  C 
  C18      1.0000 0.56566  0.86000  0.15064  Biso   1.000  C 
  C19      1.0000 0.93434  0.36000  0.34936  Biso   1.000  C 
  C20      1.0000 0.06566  0.36000  0.15064  Biso   1.000  C 
  C21      1.0000 0.56566  0.14000  0.65064  Biso   1.000  C 
  C22      1.0000 0.43434  0.14000  0.84936  Biso   1.000  C 
  C23      1.0000 0.06566  0.64000  0.65064  Biso   1.000  C 
  C24      1.0000 0.93434  0.64000  0.84936  Biso   1.000  C 
  H1       1.0000 0.46780  0.90220  0.37290  Biso   1.000  H 
  H2       1.0000 0.53220  0.90220  0.12710  Biso   1.000  H 
  H3       1.0000 0.96780  0.40220  0.37290  Biso   1.000  H 
  H4       1.0000 0.03220  0.40220  0.12710  Biso   1.000  H 
  H5       1.0000 0.53220  0.09780  0.62710  Biso   1.000  H 
  H6       1.0000 0.46780  0.09780  0.87290  Biso   1.000  H 
  H7       1.0000 0.03220  0.59780  0.62710  Biso   1.000  H 
  H8       1.0000 0.96780  0.59780  0.87290  Biso   1.000  H 
  C25      1.0000 0.33418  0.73590  0.28055  Biso   1.000  C 
  C26      1.0000 0.66582  0.73590  0.21945  Biso   1.000  C 
  C27      1.0000 0.83418  0.23590  0.28055  Biso   1.000  C 
  C28      1.0000 0.16582  0.23590  0.21945  Biso   1.000  C 
  C29      1.0000 0.66582  0.26410  0.71945  Biso   1.000  C 
  C30      1.0000 0.33418  0.26410  0.78055  Biso   1.000  C 
  C31      1.0000 0.16582  0.76410  0.71945  Biso   1.000  C 
  C32      1.0000 0.83418  0.76410  0.78055  Biso   1.000  C 
  H9       1.0000 0.30020  0.69450  0.25730  Biso   1.000  H 
  H10      1.0000 0.69980  0.69450  0.24270  Biso   1.000  H 
  H11      1.0000 0.80020  0.19450  0.25730  Biso   1.000  H 
  H12      1.0000 0.19980  0.19450  0.24270  Biso   1.000  H 
  H13      1.0000 0.69980  0.30550  0.74270  Biso   1.000  H 
  H14      1.0000 0.30020  0.30550  0.75730  Biso   1.000  H 
  H15      1.0000 0.19980  0.80550  0.74270  Biso   1.000  H 
  H16      1.0000 0.80020  0.80550  0.75730  Biso   1.000  H 
  O37      1.0000 0.28819  0.50169  0.32377  Biso   1.000  O 
  O38      1.0000 0.71181  0.50169  0.17623  Biso   1.000  O 
  O39      1.0000 0.78819  0.00169  0.32377  Biso   1.000  O 
  O40      1.0000 0.21181  0.00169  0.17623  Biso   1.000  O 
  O41      1.0000 0.71181  0.49831  0.67623  Biso   1.000  O 
  O42      1.0000 0.28819  0.49831  0.82377  Biso   1.000  O 
  O43      1.0000 0.21181  0.99831  0.67623  Biso   1.000  O 
  O44      1.0000 0.78819  0.99831  0.82377  Biso   1.000  O 
  N9       1.0000 0.09861  0.38433  0.88946  Biso   1.000  N 
  N10      1.0000 0.90139  0.38433  0.61054  Biso   1.000  N 
  N11      1.0000 0.59861  0.88433  0.88946  Biso   1.000  N 
  N12      1.0000 0.40139  0.88433  0.61054  Biso   1.000  N 
  N13      1.0000 0.90139  0.61567  0.11054  Biso   1.000  N 
  N14      1.0000 0.09861  0.61567  0.38946  Biso   1.000  N 
  N15      1.0000 0.40139  0.11567  0.11054  Biso   1.000  N 
  N16      1.0000 0.59861  0.11567  0.38946  Biso   1.000  N 
  C33      1.0000 0.45838  0.39245  0.36345  Biso   1.000  C 
  C34      1.0000 0.54162  0.39245  0.13655  Biso   1.000  C 
  C35      1.0000 0.95838  0.89245  0.36345  Biso   1.000  C 
  C36      1.0000 0.04162  0.89245  0.13655  Biso   1.000  C 
  C37      1.0000 0.54162  0.60755  0.63655  Biso   1.000  C 
  C38      1.0000 0.45838  0.60755  0.86345  Biso   1.000  C 
  C39      1.0000 0.04162  0.10755  0.63655  Biso   1.000  C 
  C40      1.0000 0.95838  0.10755  0.86345  Biso   1.000  C 
  C41      1.0000 0.35565  0.85680  0.26385  Biso   1.000  C 
  C42      1.0000 0.64435  0.85680  0.23615  Biso   1.000  C 
  C43      1.0000 0.85565  0.35680  0.26385  Biso   1.000  C 
  C44      1.0000 0.14435  0.35680  0.23615  Biso   1.000  C 
  C45      1.0000 0.64435  0.14320  0.73615  Biso   1.000  C 
  C46      1.0000 0.35565  0.14320  0.76385  Biso   1.000  C 
  C47      1.0000 0.14435  0.64320  0.73615  Biso   1.000  C 
  C48      1.0000 0.85565  0.64320  0.76385  Biso   1.000  C 
  H17      1.0000 0.33580  0.89650  0.22980  Biso   1.000  H 
  H18      1.0000 0.66420  0.89650  0.27020  Biso   1.000  H 
  H19      1.0000 0.83580  0.39650  0.22980  Biso   1.000  H 
  H20      1.0000 0.16420  0.39650  0.27020  Biso   1.000  H 
  H21      1.0000 0.66420  0.10350  0.77020  Biso   1.000  H 
  H22      1.0000 0.33580  0.10350  0.72980  Biso   1.000  H 
  H23      1.0000 0.16420  0.60350  0.77020  Biso   1.000  H 
  H24      1.0000 0.83580  0.60350  0.72980  Biso   1.000  H 
  C49      1.0000 0.36968  0.48546  0.40504  Biso   1.000  C 
  C50      1.0000 0.63032  0.48546  0.09496  Biso   1.000  C 
  C51      1.0000 0.86968  0.98546  0.40504  Biso   1.000  C 
  C52      1.0000 0.13032  0.98546  0.09496  Biso   1.000  C 
  C53      1.0000 0.63032  0.51454  0.59496  Biso   1.000  C 
  C54      1.0000 0.36968  0.51454  0.90504  Biso   1.000  C 
  C55      1.0000 0.13032  0.01454  0.59496  Biso   1.000  C 
  C56      1.0000 0.86968  0.01454  0.90504  Biso   1.000  C 
  C57      1.0000 0.33732  0.54700  0.34953  Biso   1.000  C 
  C58      1.0000 0.66268  0.54700  0.15047  Biso   1.000  C 
  C59      1.0000 0.83732  0.04700  0.34953  Biso   1.000  C 
  C60      1.0000 0.16268  0.04700  0.15047  Biso   1.000  C 
  C61      1.0000 0.66268  0.45300  0.65047  Biso   1.000  C 
  C62      1.0000 0.33732  0.45300  0.84953  Biso   1.000  C 
  C63      1.0000 0.16268  0.95300  0.65047  Biso   1.000  C 
  C64      1.0000 0.83732  0.95300  0.84953  Biso   1.000  C 
  C65      1.0000 0.16411  0.52460  0.98467  Biso   1.000  C 
  C66      1.0000 0.83589  0.52460  0.51533  Biso   1.000  C 
  C67      1.0000 0.66411  0.02460  0.98467  Biso   1.000  C 
  C68      1.0000 0.33589  0.02460  0.51533  Biso   1.000  C 
  C69      1.0000 0.83589  0.47540  0.01533  Biso   1.000  C 
  C70      1.0000 0.16411  0.47540  0.48467  Biso   1.000  C 
  C71      1.0000 0.33589  0.97540  0.01533  Biso   1.000  C 
  C72      1.0000 0.66411  0.97540  0.48467  Biso   1.000  C 
  C73      1.0000 0.42634  0.41666  0.41296  Biso   1.000  C 
  C74      1.0000 0.57366  0.41666  0.08704  Biso   1.000  C 
  C75      1.0000 0.92634  0.91666  0.41296  Biso   1.000  C 
  C76      1.0000 0.07366  0.91666  0.08704  Biso   1.000  C 
  C77      1.0000 0.57366  0.58334  0.58704  Biso   1.000  C 
  C78      1.0000 0.42634  0.58334  0.91296  Biso   1.000  C 
  C79      1.0000 0.07366  0.08334  0.58704  Biso   1.000  C 
  C80      1.0000 0.92634  0.08334  0.91296  Biso   1.000  C 
  C81      1.0000 0.40657  0.91894  0.29771  Biso   1.000  C 
  C82      1.0000 0.59343  0.91894  0.20229  Biso   1.000  C 
  C83      1.0000 0.90657  0.41894  0.29771  Biso   1.000  C 
  C84      1.0000 0.09343  0.41894  0.20229  Biso   1.000  C 
  C85      1.0000 0.59343  0.08106  0.70229  Biso   1.000  C 
  C86      1.0000 0.40657  0.08106  0.79771  Biso   1.000  C 
  C87      1.0000 0.09343  0.58106  0.70229  Biso   1.000  C 
  C88      1.0000 0.90657  0.58106  0.79771  Biso   1.000  C 
  C89      1.0000 0.22296  0.63910  0.14162  Biso   1.000  C 
  C90      1.0000 0.77704  0.63910  0.35838  Biso   1.000  C 
  C91      1.0000 0.72296  0.13910  0.14162  Biso   1.000  C 
  C92      1.0000 0.27704  0.13910  0.35838  Biso   1.000  C 
  C93      1.0000 0.77704  0.36090  0.85838  Biso   1.000  C 
  C94      1.0000 0.22296  0.36090  0.64162  Biso   1.000  C 
  C95      1.0000 0.27704  0.86090  0.85838  Biso   1.000  C 
  C96      1.0000 0.72296  0.86090  0.64162  Biso   1.000  C 
  H25      1.0000 0.23790  0.72840  0.13580  Biso   1.000  H 
  H26      1.0000 0.76210  0.72840  0.36420  Biso   1.000  H 
  H27      1.0000 0.73790  0.22840  0.13580  Biso   1.000  H 
  H28      1.0000 0.26210  0.22840  0.36420  Biso   1.000  H 
  H29      1.0000 0.76210  0.27160  0.86420  Biso   1.000  H 
  H30      1.0000 0.23790  0.27160  0.63580  Biso   1.000  H 
  H31      1.0000 0.26210  0.77160  0.86420  Biso   1.000  H 
  H32      1.0000 0.73790  0.77160  0.63580  Biso   1.000  H 
  H33      1.0000 0.20320  0.64170  0.17450  Biso   1.000  H 
  H34      1.0000 0.79680  0.64170  0.32550  Biso   1.000  H 
  H35      1.0000 0.70320  0.14170  0.17450  Biso   1.000  H 
  H36      1.0000 0.29680  0.14170  0.32550  Biso   1.000  H 
  H37      1.0000 0.79680  0.35830  0.82550  Biso   1.000  H 
  H38      1.0000 0.20320  0.35830  0.67450  Biso   1.000  H 
  H39      1.0000 0.29680  0.85830  0.82550  Biso   1.000  H 
  H40      1.0000 0.70320  0.85830  0.67450  Biso   1.000  H 
  C97      1.0000 0.41282  0.73940  0.36600  Biso   1.000  C 
  C98      1.0000 0.58718  0.73940  0.13400  Biso   1.000  C 
  C99      1.0000 0.91282  0.23940  0.36600  Biso   1.000  C 
  C100     1.0000 0.08718  0.23940  0.13400  Biso   1.000  C 
  C101     1.0000 0.58718  0.26060  0.63400  Biso   1.000  C 
  C102     1.0000 0.41282  0.26060  0.86600  Biso   1.000  C 
  C103     1.0000 0.08718  0.76060  0.63400  Biso   1.000  C 
  C104     1.0000 0.91282  0.76060  0.86600  Biso   1.000  C 
  H41      1.0000 0.43200  0.70060  0.40050  Biso   1.000  H 
  H42      1.0000 0.56800  0.70060  0.09950  Biso   1.000  H 
  H43      1.0000 0.93200  0.20060  0.40050  Biso   1.000  H 
  H44      1.0000 0.06800  0.20060  0.09950  Biso   1.000  H 
  H45      1.0000 0.56800  0.29940  0.59950  Biso   1.000  H 
  H46      1.0000 0.43200  0.29940  0.90050  Biso   1.000  H 
  H47      1.0000 0.06800  0.79940  0.59950  Biso   1.000  H 
  H48      1.0000 0.93200  0.79940  0.90050  Biso   1.000  H 
  C105     1.0000 0.43382  0.04754  0.27979  Biso   1.000  C 
  C106     1.0000 0.56618  0.04754  0.22021  Biso   1.000  C 
  C107     1.0000 0.93382  0.54754  0.27979  Biso   1.000  C 
  C108     1.0000 0.06618  0.54754  0.22021  Biso   1.000  C 
  C109     1.0000 0.56618  0.95246  0.72021  Biso   1.000  C 
  C110     1.0000 0.43382  0.95246  0.77979  Biso   1.000  C 
  C111     1.0000 0.06618  0.45246  0.72021  Biso   1.000  C 
  C112     1.0000 0.93382  0.45246  0.77979  Biso   1.000  C 
  C113     1.0000 0.33856  0.58390  0.15712  Biso   1.000  C 
  C114     1.0000 0.66144  0.58390  0.34288  Biso   1.000  C 
  C115     1.0000 0.83856  0.08390  0.15712  Biso   1.000  C 
  C116     1.0000 0.16144  0.08390  0.34288  Biso   1.000  C 
  C117     1.0000 0.66144  0.41610  0.84288  Biso   1.000  C 
  C118     1.0000 0.33856  0.41610  0.65712  Biso   1.000  C 
  C119     1.0000 0.16144  0.91610  0.84288  Biso   1.000  C 
  C120     1.0000 0.83856  0.91610  0.65712  Biso   1.000  C 
  H49      1.0000 0.34760  0.67370  0.15290  Biso   1.000  H 
  H50      1.0000 0.65240  0.67370  0.34710  Biso   1.000  H 
  H51      1.0000 0.84760  0.17370  0.15290  Biso   1.000  H 
  H52      1.0000 0.15240  0.17370  0.34710  Biso   1.000  H 
  H53      1.0000 0.65240  0.32630  0.84710  Biso   1.000  H 
  H54      1.0000 0.34760  0.32630  0.65290  Biso   1.000  H 
  H55      1.0000 0.15240  0.82630  0.84710  Biso   1.000  H 
  H56      1.0000 0.84760  0.82630  0.65290  Biso   1.000  H 
  C121     1.0000 0.38594  0.49174  0.16685  Biso   1.000  C 
  C122     1.0000 0.61406  0.49174  0.33315  Biso   1.000  C 
  C123     1.0000 0.88594  0.99174  0.16685  Biso   1.000  C 
  C124     1.0000 0.11406  0.99174  0.33315  Biso   1.000  C 
  C125     1.0000 0.61406  0.50826  0.83315  Biso   1.000  C 
  C126     1.0000 0.38594  0.50826  0.66685  Biso   1.000  C 
  C127     1.0000 0.11406  0.00826  0.83315  Biso   1.000  C 
  C128     1.0000 0.88594  0.00826  0.66685  Biso   1.000  C 
  H57      1.0000 0.42650  0.52180  0.16880  Biso   1.000  H 
  H58      1.0000 0.57350  0.52180  0.33120  Biso   1.000  H 
  H59      1.0000 0.92650  0.02180  0.16880  Biso   1.000  H 
  H60      1.0000 0.07350  0.02180  0.33120  Biso   1.000  H 
  H61      1.0000 0.57350  0.47820  0.83120  Biso   1.000  H 
  H62      1.0000 0.42650  0.47820  0.66880  Biso   1.000  H 
  H63      1.0000 0.07350  0.97820  0.83120  Biso   1.000  H 
  H64      1.0000 0.92650  0.97820  0.66880  Biso   1.000  H 
  C129     1.0000 0.45282  0.36830  0.46695  Biso   1.000  C 
  C130     1.0000 0.54718  0.36830  0.03305  Biso   1.000  C 
  C131     1.0000 0.95282  0.86830  0.46695  Biso   1.000  C 
  C132     1.0000 0.04718  0.86830  0.03305  Biso   1.000  C 
  C133     1.0000 0.54718  0.63170  0.53305  Biso   1.000  C 
  C134     1.0000 0.45282  0.63170  0.96695  Biso   1.000  C 
  C135     1.0000 0.04718  0.13170  0.53305  Biso   1.000  C 
  C136     1.0000 0.95282  0.13170  0.96695  Biso   1.000  C 
  H65      1.0000 0.49000  0.32070  0.47210  Biso   1.000  H 
  H66      1.0000 0.51000  0.32070  0.02790  Biso   1.000  H 
  H67      1.0000 0.99000  0.82070  0.47210  Biso   1.000  H 
  H68      1.0000 0.01000  0.82070  0.02790  Biso   1.000  H 
  H69      1.0000 0.51000  0.67930  0.52790  Biso   1.000  H 
  H70      1.0000 0.49000  0.67930  0.97210  Biso   1.000  H 
  H71      1.0000 0.01000  0.17930  0.52790  Biso   1.000  H 
  H72      1.0000 0.99000  0.17930  0.97210  Biso   1.000  H 
  C137     1.0000 0.26832  0.40890  0.16051  Biso   1.000  C 
  C138     1.0000 0.73168  0.40890  0.33949  Biso   1.000  C 
  C139     1.0000 0.76832  0.90890  0.16051  Biso   1.000  C 
  C140     1.0000 0.23168  0.90890  0.33949  Biso   1.000  C 
  C141     1.0000 0.73168  0.59110  0.83949  Biso   1.000  C 
  C142     1.0000 0.26832  0.59110  0.66051  Biso   1.000  C 
  C143     1.0000 0.23168  0.09110  0.83949  Biso   1.000  C 
  C144     1.0000 0.76832  0.09110  0.66051  Biso   1.000  C 
  H73      1.0000 0.22810  0.37620  0.15810  Biso   1.000  H 
  H74      1.0000 0.77190  0.37620  0.34190  Biso   1.000  H 
  H75      1.0000 0.72810  0.87620  0.15810  Biso   1.000  H 
  H76      1.0000 0.27190  0.87620  0.34190  Biso   1.000  H 
  H77      1.0000 0.77190  0.62380  0.84190  Biso   1.000  H 
  H78      1.0000 0.22810  0.62380  0.65810  Biso   1.000  H 
  H79      1.0000 0.27190  0.12380  0.84190  Biso   1.000  H 
  H80      1.0000 0.72810  0.12380  0.65810  Biso   1.000  H 
  C145     1.0000 0.17479  0.59720  0.08864  Biso   1.000  C 
  C146     1.0000 0.82521  0.59720  0.41136  Biso   1.000  C 
  C147     1.0000 0.67479  0.09720  0.08864  Biso   1.000  C 
  C148     1.0000 0.32521  0.09720  0.41136  Biso   1.000  C 
  C149     1.0000 0.82521  0.40280  0.91136  Biso   1.000  C 
  C150     1.0000 0.17479  0.40280  0.58864  Biso   1.000  C 
  C151     1.0000 0.32521  0.90280  0.91136  Biso   1.000  C 
  C152     1.0000 0.67479  0.90280  0.58864  Biso   1.000  C 
  H81      1.0000 0.15960  0.50820  0.09450  Biso   1.000  H 
  H82      1.0000 0.84040  0.50820  0.40550  Biso   1.000  H 
  H83      1.0000 0.65960  0.00820  0.09450  Biso   1.000  H 
  H84      1.0000 0.34040  0.00820  0.40550  Biso   1.000  H 
  H85      1.0000 0.84040  0.49180  0.90550  Biso   1.000  H 
  H86      1.0000 0.15960  0.49180  0.59450  Biso   1.000  H 
  H87      1.0000 0.34040  0.99180  0.90550  Biso   1.000  H 
  H88      1.0000 0.65960  0.99180  0.59450  Biso   1.000  H 
  H89      1.0000 0.13960  0.65810  0.08350  Biso   1.000  H 
  H90      1.0000 0.86040  0.65810  0.41650  Biso   1.000  H 
  H91      1.0000 0.63960  0.15810  0.08350  Biso   1.000  H 
  H92      1.0000 0.36040  0.15810  0.41650  Biso   1.000  H 
  H93      1.0000 0.86040  0.34190  0.91650  Biso   1.000  H 
  H94      1.0000 0.13960  0.34190  0.58350  Biso   1.000  H 
  H95      1.0000 0.36040  0.84190  0.91650  Biso   1.000  H 
  H96      1.0000 0.63960  0.84190  0.58350  Biso   1.000  H 
  C153     1.0000 0.14330  0.58460  0.93288  Biso   1.000  C 
  C154     1.0000 0.85670  0.58460  0.56712  Biso   1.000  C 
  C155     1.0000 0.64330  0.08460  0.93288  Biso   1.000  C 
  C156     1.0000 0.35670  0.08460  0.56712  Biso   1.000  C 
  C157     1.0000 0.85670  0.41540  0.06712  Biso   1.000  C 
  C158     1.0000 0.14330  0.41540  0.43288  Biso   1.000  C 
  C159     1.0000 0.35670  0.91540  0.06712  Biso   1.000  C 
  C160     1.0000 0.64330  0.91540  0.43288  Biso   1.000  C 
  H97      1.0000 0.15080  0.67520  0.92860  Biso   1.000  H 
  H98      1.0000 0.84920  0.67520  0.57140  Biso   1.000  H 
  H99      1.0000 0.65080  0.17520  0.92860  Biso   1.000  H 
  H100     1.0000 0.34920  0.17520  0.57140  Biso   1.000  H 
  H101     1.0000 0.84920  0.32480  0.07140  Biso   1.000  H 
  H102     1.0000 0.15080  0.32480  0.42860  Biso   1.000  H 
  H103     1.0000 0.34920  0.82480  0.07140  Biso   1.000  H 
  H104     1.0000 0.65080  0.82480  0.42860  Biso   1.000  H 
  C161     1.0000 0.15091  0.38920  0.98729  Biso   1.000  C 
  C162     1.0000 0.84909  0.38920  0.51271  Biso   1.000  C 
  C163     1.0000 0.65091  0.88920  0.98729  Biso   1.000  C 
  C164     1.0000 0.34909  0.88920  0.51271  Biso   1.000  C 
  C165     1.0000 0.84909  0.61080  0.01271  Biso   1.000  C 
  C166     1.0000 0.15091  0.61080  0.48729  Biso   1.000  C 
  C167     1.0000 0.34909  0.11080  0.01271  Biso   1.000  C 
  C168     1.0000 0.65091  0.11080  0.48729  Biso   1.000  C 
  H105     1.0000 0.16380  0.34280  0.02140  Biso   1.000  H 
  H106     1.0000 0.83620  0.34280  0.47860  Biso   1.000  H 
  H107     1.0000 0.66380  0.84280  0.02140  Biso   1.000  H 
  H108     1.0000 0.33620  0.84280  0.47860  Biso   1.000  H 
  H109     1.0000 0.83620  0.65720  0.97860  Biso   1.000  H 
  H110     1.0000 0.16380  0.65720  0.52140  Biso   1.000  H 
  H111     1.0000 0.33620  0.15720  0.97860  Biso   1.000  H 
  H112     1.0000 0.66380  0.15720  0.52140  Biso   1.000  H 
  C169     1.0000 0.11159  0.51310  0.88722  Biso   1.000  C 
  C170     1.0000 0.88841  0.51310  0.61278  Biso   1.000  C 
  C171     1.0000 0.61159  0.01310  0.88722  Biso   1.000  C 
  C172     1.0000 0.38841  0.01310  0.61278  Biso   1.000  C 
  C173     1.0000 0.88841  0.48690  0.11278  Biso   1.000  C 
  C174     1.0000 0.11159  0.48690  0.38722  Biso   1.000  C 
  C175     1.0000 0.38841  0.98690  0.11278  Biso   1.000  C 
  C176     1.0000 0.61159  0.98690  0.38722  Biso   1.000  C 
  H113     1.0000 0.09850  0.55760  0.85270  Biso   1.000  H 
  H114     1.0000 0.90150  0.55760  0.64730  Biso   1.000  H 
  H115     1.0000 0.59850  0.05760  0.85270  Biso   1.000  H 
  H116     1.0000 0.40150  0.05760  0.64730  Biso   1.000  H 
  H117     1.0000 0.90150  0.44240  0.14730  Biso   1.000  H 
  H118     1.0000 0.09850  0.44240  0.35270  Biso   1.000  H 
  H119     1.0000 0.40150  0.94240  0.14730  Biso   1.000  H 
  H120     1.0000 0.59850  0.94240  0.35270  Biso   1.000  H 
  C177     1.0000 0.20200  0.59770  0.03538  Biso   1.000  C 
  C178     1.0000 0.79800  0.59770  0.46462  Biso   1.000  C 
  C179     1.0000 0.70200  0.09770  0.03538  Biso   1.000  C 
  C180     1.0000 0.29800  0.09770  0.46462  Biso   1.000  C 
  C181     1.0000 0.79800  0.40230  0.96462  Biso   1.000  C 
  C182     1.0000 0.20200  0.40230  0.53538  Biso   1.000  C 
  C183     1.0000 0.29800  0.90230  0.96462  Biso   1.000  C 
  C184     1.0000 0.70200  0.90230  0.53538  Biso   1.000  C 
  H121     1.0000 0.24320  0.55770  0.04450  Biso   1.000  H 
  H122     1.0000 0.75680  0.55770  0.45550  Biso   1.000  H 
  H123     1.0000 0.74320  0.05770  0.04450  Biso   1.000  H 
  H124     1.0000 0.25680  0.05770  0.45550  Biso   1.000  H 
  H125     1.0000 0.75680  0.44230  0.95550  Biso   1.000  H 
  H126     1.0000 0.24320  0.44230  0.54450  Biso   1.000  H 
  H127     1.0000 0.25680  0.94230  0.95550  Biso   1.000  H 
  H128     1.0000 0.74320  0.94230  0.54450  Biso   1.000  H 
  H129     1.0000 0.20700  0.68980  0.02440  Biso   1.000  H 
  H130     1.0000 0.79300  0.68980  0.47560  Biso   1.000  H 
  H131     1.0000 0.70700  0.18980  0.02440  Biso   1.000  H 
  H132     1.0000 0.29300  0.18980  0.47560  Biso   1.000  H 
  H133     1.0000 0.79300  0.31020  0.97560  Biso   1.000  H 
  H134     1.0000 0.20700  0.31020  0.52440  Biso   1.000  H 
  H135     1.0000 0.29300  0.81020  0.97560  Biso   1.000  H 
  H136     1.0000 0.70700  0.81020  0.52440  Biso   1.000  H 
  C185     1.0000 0.42461  0.38980  0.51308  Biso   1.000  C 
  C186     1.0000 0.57539  0.38980  0.98692  Biso   1.000  C 
  C187     1.0000 0.92461  0.88980  0.51308  Biso   1.000  C 
  C188     1.0000 0.07539  0.88980  0.98692  Biso   1.000  C 
  C189     1.0000 0.57539  0.61020  0.48692  Biso   1.000  C 
  C190     1.0000 0.42461  0.61020  0.01308  Biso   1.000  C 
  C191     1.0000 0.07539  0.11020  0.48692  Biso   1.000  C 
  C192     1.0000 0.92461  0.11020  0.01308  Biso   1.000  C 
  H137     1.0000 0.44330  0.35880  0.54920  Biso   1.000  H 
  H138     1.0000 0.55670  0.35880  0.95080  Biso   1.000  H 
  H139     1.0000 0.94330  0.85880  0.54920  Biso   1.000  H 
  H140     1.0000 0.05670  0.85880  0.95080  Biso   1.000  H 
  H141     1.0000 0.55670  0.64120  0.45080  Biso   1.000  H 
  H142     1.0000 0.44330  0.64120  0.04920  Biso   1.000  H 
  H143     1.0000 0.05670  0.14120  0.45080  Biso   1.000  H 
  H144     1.0000 0.94330  0.14120  0.04920  Biso   1.000  H 
  C193     1.0000 0.36928  0.45680  0.50528  Biso   1.000  C 
  C194     1.0000 0.63072  0.45680  0.99472  Biso   1.000  C 
  C195     1.0000 0.86928  0.95680  0.50528  Biso   1.000  C 
  C196     1.0000 0.13072  0.95680  0.99472  Biso   1.000  C 
  C197     1.0000 0.63072  0.54320  0.49472  Biso   1.000  C 
  C198     1.0000 0.36928  0.54320  0.00528  Biso   1.000  C 
  C199     1.0000 0.13072  0.04320  0.49472  Biso   1.000  C 
  C200     1.0000 0.86928  0.04320  0.00528  Biso   1.000  C 
  H145     1.0000 0.35020  0.47080  0.53630  Biso   1.000  H 
  H146     1.0000 0.64980  0.47080  0.96370  Biso   1.000  H 
  H147     1.0000 0.85020  0.97080  0.53630  Biso   1.000  H 
  H148     1.0000 0.14980  0.97080  0.96370  Biso   1.000  H 
  H149     1.0000 0.64980  0.52920  0.46370  Biso   1.000  H 
  H150     1.0000 0.35020  0.52920  0.03630  Biso   1.000  H 
  H151     1.0000 0.14980  0.02920  0.46370  Biso   1.000  H 
  H152     1.0000 0.85020  0.02920  0.03630  Biso   1.000  H 
  C201     1.0000 0.31818  0.32210  0.17107  Biso   1.000  C 
  C202     1.0000 0.68182  0.32210  0.32893  Biso   1.000  C 
  C203     1.0000 0.81818  0.82210  0.17107  Biso   1.000  C 
  C204     1.0000 0.18182  0.82210  0.32893  Biso   1.000  C 
  C205     1.0000 0.68182  0.67790  0.82893  Biso   1.000  C 
  C206     1.0000 0.31818  0.67790  0.67107  Biso   1.000  C 
  C207     1.0000 0.18182  0.17790  0.82893  Biso   1.000  C 
  C208     1.0000 0.81818  0.17790  0.67107  Biso   1.000  C 
  H153     1.0000 0.31050  0.23210  0.17670  Biso   1.000  H 
  H154     1.0000 0.68950  0.23210  0.32330  Biso   1.000  H 
  H155     1.0000 0.81050  0.73210  0.17670  Biso   1.000  H 
  H156     1.0000 0.18950  0.73210  0.32330  Biso   1.000  H 
  H157     1.0000 0.68950  0.76790  0.82330  Biso   1.000  H 
  H158     1.0000 0.31050  0.76790  0.67670  Biso   1.000  H 
  H159     1.0000 0.18950  0.26790  0.82330  Biso   1.000  H 
  H160     1.0000 0.81050  0.26790  0.67670  Biso   1.000  H 
  C209     1.0000 0.11900  0.32350  0.93986  Biso   1.000  C 
  C210     1.0000 0.88100  0.32350  0.56014  Biso   1.000  C 
  C211     1.0000 0.61900  0.82350  0.93986  Biso   1.000  C 
  C212     1.0000 0.38100  0.82350  0.56014  Biso   1.000  C 
  C213     1.0000 0.88100  0.67650  0.06014  Biso   1.000  C 
  C214     1.0000 0.11900  0.67650  0.43986  Biso   1.000  C 
  C215     1.0000 0.38100  0.17650  0.06014  Biso   1.000  C 
  C216     1.0000 0.61900  0.17650  0.43986  Biso   1.000  C 
  H161     1.0000 0.11120  0.23260  0.94280  Biso   1.000  H 
  H162     1.0000 0.88880  0.23260  0.55720  Biso   1.000  H 
  H163     1.0000 0.61120  0.73260  0.94280  Biso   1.000  H 
  H164     1.0000 0.38880  0.73260  0.55720  Biso   1.000  H 
  H165     1.0000 0.88880  0.76740  0.05720  Biso   1.000  H 
  H166     1.0000 0.11120  0.76740  0.44280  Biso   1.000  H 
  H167     1.0000 0.38880  0.26740  0.05720  Biso   1.000  H 
  H168     1.0000 0.61120  0.26740  0.44280  Biso   1.000  H 
  C217     1.0000 0.34132  0.50400  0.45205  Biso   1.000  C 
  C218     1.0000 0.65868  0.50400  0.04795  Biso   1.000  C 
  C219     1.0000 0.84132  0.00400  0.45205  Biso   1.000  C 
  C220     1.0000 0.15868  0.00400  0.04795  Biso   1.000  C 
  C221     1.0000 0.65868  0.49600  0.54795  Biso   1.000  C 
  C222     1.0000 0.34132  0.49600  0.95205  Biso   1.000  C 
  C223     1.0000 0.15868  0.99600  0.54795  Biso   1.000  C 
  C224     1.0000 0.84132  0.99600  0.95205  Biso   1.000  C 
  H169     1.0000 0.30330  0.54840  0.44740  Biso   1.000  H 
  H170     1.0000 0.69670  0.54840  0.05260  Biso   1.000  H 
  H171     1.0000 0.80330  0.04840  0.44740  Biso   1.000  H 
  H172     1.0000 0.19670  0.04840  0.05260  Biso   1.000  H 
  H173     1.0000 0.69670  0.45160  0.55260  Biso   1.000  H 
  H174     1.0000 0.30330  0.45160  0.94740  Biso   1.000  H 
  H175     1.0000 0.19670  0.95160  0.55260  Biso   1.000  H 
  H176     1.0000 0.80330  0.95160  0.94740  Biso   1.000  H 
