data_image0
_cell_length_a       8.13
_cell_length_b       12.0041
_cell_length_c       22.0078
_cell_angle_alpha    90
_cell_angle_beta     96.097
_cell_angle_gamma    90

_symmetry_space_group_name_H-M    "P 1"
_symmetry_int_tables_number       1

loop_
  _symmetry_equiv_pos_as_xyz
  'x, y, z'

loop_
  _atom_site_label
  _atom_site_occupancy
  _atom_site_fract_x
  _atom_site_fract_y
  _atom_site_fract_z
  _atom_site_thermal_displace_type
  _atom_site_B_iso_or_equiv
  _atom_site_type_symbol
  Cd1      1.0000 0.50000  0.00000  0.00000  Biso   1.000  Cd
  N1       1.0000 0.55760  0.19170  0.02047  Biso   1.000  N 
  C1       1.0000 0.43320  0.26130  0.02716  Biso   1.000  C 
  C2       1.0000 0.45380  0.36660  0.05200  Biso   1.000  C 
  H1       1.0000 0.36250  0.41210  0.05530  Biso   1.000  H 
  C3       1.0000 0.61320  0.40440  0.07222  Biso   1.000  C 
  C4       1.0000 0.74370  0.33300  0.06425  Biso   1.000  C 
  H2       1.0000 0.85200  0.35480  0.07640  Biso   1.000  H 
  C5       1.0000 0.71200  0.23020  0.03836  Biso   1.000  C 
  H3       1.0000 0.80140  0.18440  0.03280  Biso   1.000  H 
  C6       1.0000 0.64510  0.51700  0.10280  Biso   1.000  C 
  C7       1.0000 0.56880  0.52400  0.16450  Biso   1.000  C 
  H4       1.0000 0.45000  0.51350  0.15700  Biso   1.000  H 
  H5       1.0000 0.58880  0.59760  0.18180  Biso   1.000  H 
  C8       1.0000 0.64010  0.43740  0.21001  Biso   1.000  C 
  H6       1.0000 0.60260  0.36450  0.19540  Biso   1.000  H 
  H7       1.0000 0.75960  0.43860  0.21090  Biso   1.000  H 
  C9       1.0000 0.59680  0.45110  0.27421  Biso   1.000  C 
  C10      1.0000 0.66570  0.38270  0.32022  Biso   1.000  C 
  H8       1.0000 0.74030  0.32770  0.31140  Biso   1.000  H 
  C11      1.0000 0.62620  0.39450  0.37864  Biso   1.000  C 
  H9       1.0000 0.67640  0.34660  0.40820  Biso   1.000  H 
  N2       1.0000 0.52100  0.46960  0.39606  Biso   1.000  N 
  C12      1.0000 0.45350  0.53770  0.35154  Biso   1.000  C 
  H10      1.0000 0.37940  0.59190  0.36160  Biso   1.000  H 
  C13      1.0000 0.48930  0.53070  0.29130  Biso   1.000  C 
  H11      1.0000 0.44010  0.58030  0.26230  Biso   1.000  H 
  Cd2      1.0000 0.50000  0.50000  0.50000  Biso   1.000  Cd
  Cl1      1.0000 0.20800  0.47250  0.49380  Biso   1.000  Cl
  N3       1.0000 0.44240  0.69170  0.47953  Biso   1.000  N 
  C14      1.0000 0.28800  0.73020  0.46164  Biso   1.000  C 
  H12      1.0000 0.19860  0.68440  0.46720  Biso   1.000  H 
  C15      1.0000 0.25630  0.83300  0.43575  Biso   1.000  C 
  H13      1.0000 0.14800  0.85480  0.42360  Biso   1.000  H 
  C16      1.0000 0.38680  0.90440  0.42778  Biso   1.000  C 
  C17      1.0000 0.54620  0.86660  0.44800  Biso   1.000  C 
  H14      1.0000 0.63750  0.91210  0.44470  Biso   1.000  H 
  C18      1.0000 0.56680  0.76130  0.47284  Biso   1.000  C 
  H15      1.0000 0.67380  0.73760  0.48570  Biso   1.000  H 
  C19      1.0000 0.35490  0.01700  0.39720  Biso   1.000  C 
  H16      1.0000 0.23650  0.02950  0.39000  Biso   1.000  H 
  H17      1.0000 0.40190  0.07510  0.42430  Biso   1.000  H 
  C20      1.0000 0.43120  0.02400  0.33550  Biso   1.000  C 
  H18      1.0000 0.41120  0.09760  0.31820  Biso   1.000  H 
  H19      1.0000 0.55000  0.01350  0.34300  Biso   1.000  H 
  C21      1.0000 0.35990  0.93740  0.28999  Biso   1.000  C 
  H20      1.0000 0.24040  0.93860  0.28910  Biso   1.000  H 
  H21      1.0000 0.39740  0.86450  0.30460  Biso   1.000  H 
  C22      1.0000 0.40320  0.95110  0.22579  Biso   1.000  C 
  C23      1.0000 0.33430  0.88270  0.17978  Biso   1.000  C 
  H22      1.0000 0.25970  0.82770  0.18860  Biso   1.000  H 
  C24      1.0000 0.37380  0.89450  0.12136  Biso   1.000  C 
  H23      1.0000 0.32360  0.84660  0.09180  Biso   1.000  H 
  N4       1.0000 0.47900  0.96960  0.10394  Biso   1.000  N 
  C25      1.0000 0.54650  0.03770  0.14846  Biso   1.000  C 
  H24      1.0000 0.62060  0.09190  0.13840  Biso   1.000  H 
  C26      1.0000 0.51070  0.03070  0.20870  Biso   1.000  C 
  H25      1.0000 0.55990  0.08030  0.23770  Biso   1.000  H 
  N5       1.0000 0.55760  0.30830  0.52047  Biso   1.000  N 
  C27      1.0000 0.43320  0.23870  0.52716  Biso   1.000  C 
  H26      1.0000 0.32620  0.26240  0.51430  Biso   1.000  H 
  C28      1.0000 0.45380  0.13340  0.55200  Biso   1.000  C 
  H27      1.0000 0.36250  0.08790  0.55530  Biso   1.000  H 
  C29      1.0000 0.61320  0.09560  0.57222  Biso   1.000  C 
  C30      1.0000 0.74370  0.16700  0.56425  Biso   1.000  C 
  H28      1.0000 0.85200  0.14520  0.57640  Biso   1.000  H 
  C31      1.0000 0.71200  0.26980  0.53836  Biso   1.000  C 
  H29      1.0000 0.80140  0.31560  0.53280  Biso   1.000  H 
  C32      1.0000 0.64510  0.98300  0.60280  Biso   1.000  C 
  C33      1.0000 0.56880  0.97600  0.66450  Biso   1.000  C 
  H30      1.0000 0.45000  0.98650  0.65700  Biso   1.000  H 
  H31      1.0000 0.58880  0.90240  0.68180  Biso   1.000  H 
  C34      1.0000 0.64010  0.06260  0.71001  Biso   1.000  C 
  H32      1.0000 0.60260  0.13550  0.69540  Biso   1.000  H 
  H33      1.0000 0.75960  0.06140  0.71090  Biso   1.000  H 
  C35      1.0000 0.59680  0.04890  0.77421  Biso   1.000  C 
  C36      1.0000 0.66570  0.11730  0.82022  Biso   1.000  C 
  H34      1.0000 0.74030  0.17230  0.81140  Biso   1.000  H 
  C37      1.0000 0.62620  0.10550  0.87864  Biso   1.000  C 
  H35      1.0000 0.67640  0.15340  0.90820  Biso   1.000  H 
  N6       1.0000 0.52100  0.03040  0.89606  Biso   1.000  N 
  C38      1.0000 0.45350  0.96230  0.85154  Biso   1.000  C 
  H36      1.0000 0.37940  0.90810  0.86160  Biso   1.000  H 
  C39      1.0000 0.48930  0.96930  0.79130  Biso   1.000  C 
  H37      1.0000 0.44010  0.91970  0.76230  Biso   1.000  H 
  H38      1.0000 0.59810  0.92490  0.57570  Biso   1.000  H 
  H39      1.0000 0.76350  0.97050  0.61000  Biso   1.000  H 
  N7       1.0000 0.47900  0.53040  0.60394  Biso   1.000  N 
  C40      1.0000 0.54650  0.46230  0.64846  Biso   1.000  C 
  H40      1.0000 0.62060  0.40810  0.63840  Biso   1.000  H 
  C41      1.0000 0.51070  0.46930  0.70870  Biso   1.000  C 
  H41      1.0000 0.55990  0.41970  0.73770  Biso   1.000  H 
  C42      1.0000 0.40320  0.54890  0.72579  Biso   1.000  C 
  C43      1.0000 0.33430  0.61730  0.67978  Biso   1.000  C 
  H42      1.0000 0.25970  0.67230  0.68860  Biso   1.000  H 
  C44      1.0000 0.37380  0.60550  0.62136  Biso   1.000  C 
  H43      1.0000 0.32360  0.65340  0.59180  Biso   1.000  H 
  C45      1.0000 0.35990  0.56260  0.78999  Biso   1.000  C 
  C46      1.0000 0.43120  0.47600  0.83550  Biso   1.000  C 
  H44      1.0000 0.41120  0.40240  0.81820  Biso   1.000  H 
  H45      1.0000 0.55000  0.48650  0.84300  Biso   1.000  H 
  C47      1.0000 0.35490  0.48300  0.89720  Biso   1.000  C 
  H46      1.0000 0.23650  0.47050  0.89000  Biso   1.000  H 
  H47      1.0000 0.40190  0.42490  0.92430  Biso   1.000  H 
  C48      1.0000 0.38680  0.59560  0.92778  Biso   1.000  C 
  C49      1.0000 0.25630  0.66700  0.93575  Biso   1.000  C 
  H48      1.0000 0.14800  0.64520  0.92360  Biso   1.000  H 
  C50      1.0000 0.28800  0.76980  0.96164  Biso   1.000  C 
  H49      1.0000 0.19860  0.81560  0.96720  Biso   1.000  H 
  N8       1.0000 0.44240  0.80830  0.97953  Biso   1.000  N 
  C51      1.0000 0.56680  0.73870  0.97284  Biso   1.000  C 
  C52      1.0000 0.54620  0.63340  0.94800  Biso   1.000  C 
  H50      1.0000 0.63750  0.58790  0.94470  Biso   1.000  H 
  H51      1.0000 0.67380  0.76240  0.98570  Biso   1.000  H 
  H52      1.0000 0.24040  0.56140  0.78910  Biso   1.000  H 
  H53      1.0000 0.39740  0.63550  0.80460  Biso   1.000  H 
  Cl2      1.0000 0.79200  0.52750  0.50620  Biso   1.000  Cl
  H54      1.0000 0.59810  0.57510  0.07570  Biso   1.000  H 
  H55      1.0000 0.76350  0.52950  0.11000  Biso   1.000  H 
  H56      1.0000 0.32620  0.23760  0.01430  Biso   1.000  H 
  Cl3      1.0000 0.79200  0.97250  0.00620  Biso   1.000  Cl
  Cl4      1.0000 0.20800  0.02750  0.99380  Biso   1.000  Cl
