data_image0
_cell_length_a       16.0786
_cell_length_b       16.6111
_cell_length_c       16.8145
_cell_angle_alpha    108.474
_cell_angle_beta     105.86
_cell_angle_gamma    105.663

_symmetry_space_group_name_H-M    "P 1"
_symmetry_int_tables_number       1

loop_
  _symmetry_equiv_pos_as_xyz
  'x, y, z'

loop_
  _atom_site_label
  _atom_site_occupancy
  _atom_site_fract_x
  _atom_site_fract_y
  _atom_site_fract_z
  _atom_site_thermal_displace_type
  _atom_site_B_iso_or_equiv
  _atom_site_type_symbol
  Mg1      1.0000 0.78620  0.08968  0.34712  Biso   1.000  Mg
  Mg2      1.0000 0.21380  0.91032  0.65288  Biso   1.000  Mg
  Mg3      1.0000 0.80234  0.22971  0.22887  Biso   1.000  Mg
  Mg4      1.0000 0.19766  0.77029  0.77113  Biso   1.000  Mg
  O1       1.0000 0.75800  0.20170  0.39652  Biso   1.000  O 
  O2       1.0000 0.24200  0.79830  0.60348  Biso   1.000  O 
  O3       1.0000 0.83140  0.10030  0.47950  Biso   1.000  O 
  O4       1.0000 0.16860  0.89970  0.52050  Biso   1.000  O 
  H1       1.0000 0.79212  0.07897  0.51041  Biso   1.000  H 
  H2       1.0000 0.20788  0.92103  0.48959  Biso   1.000  H 
  H3       1.0000 0.89630  0.12814  0.52398  Biso   1.000  H 
  H4       1.0000 0.10370  0.87186  0.47602  Biso   1.000  H 
  O5       1.0000 0.75660  0.29151  0.32162  Biso   1.000  O 
  O6       1.0000 0.24340  0.70849  0.67838  Biso   1.000  O 
  O7       1.0000 0.93442  0.26806  0.31491  Biso   1.000  O 
  O8       1.0000 0.06558  0.73194  0.68509  Biso   1.000  O 
  O9       1.0000 0.92023  0.16190  0.37090  Biso   1.000  O 
  O10      1.0000 0.07977  0.83810  0.62910  Biso   1.000  O 
  O11      1.0000 0.80710  0.11435  0.12424  Biso   1.000  O 
  O12      1.0000 0.19290  0.88565  0.87576  Biso   1.000  O 
  O13      1.0000 0.74242  0.09289  0.21793  Biso   1.000  O 
  O14      1.0000 0.25758  0.90711  0.78207  Biso   1.000  O 
  O15      1.0000 0.65000  0.00300  0.31570  Biso   1.000  O 
  O16      1.0000 0.35000  0.99700  0.68430  Biso   1.000  O 
  O17      1.0000 0.81260  0.97340  0.30740  Biso   1.000  O 
  O18      1.0000 0.18740  0.02660  0.69260  Biso   1.000  O 
  O19      1.0000 0.68560  0.23082  0.12794  Biso   1.000  O 
  O20      1.0000 0.31440  0.76918  0.87206  Biso   1.000  O 
  O21      1.0000 0.83208  0.32655  0.17713  Biso   1.000  O 
  O22      1.0000 0.16792  0.67345  0.82287  Biso   1.000  O 
  N1       1.0000 0.51210  0.95140  0.34360  Biso   1.000  N 
  N2       1.0000 0.48790  0.04860  0.65640  Biso   1.000  N 
  N3       1.0000 0.90650  0.89680  0.31200  Biso   1.000  N 
  N4       1.0000 0.09350  0.10320  0.68800  Biso   1.000  N 
  C1       1.0000 0.73810  0.26350  0.37860  Biso   1.000  C 
  C2       1.0000 0.26190  0.73650  0.62140  Biso   1.000  C 
  C3       1.0000 0.68630  0.30690  0.42980  Biso   1.000  C 
  C4       1.0000 0.31370  0.69310  0.57020  Biso   1.000  C 
  C5       1.0000 0.67580  0.28670  0.50180  Biso   1.000  C 
  C6       1.0000 0.32420  0.71330  0.49820  Biso   1.000  C 
  H5       1.0000 0.70344  0.24936  0.51955  Biso   1.000  H 
  H6       1.0000 0.29656  0.75064  0.48045  Biso   1.000  H 
  C7       1.0000 0.62510  0.32130  0.54650  Biso   1.000  C 
  C8       1.0000 0.37490  0.67870  0.45350  Biso   1.000  C 
  H7       1.0000 0.62099  0.30935  0.59599  Biso   1.000  H 
  H8       1.0000 0.37901  0.69065  0.40401  Biso   1.000  H 
  C9       1.0000 0.57930  0.37440  0.51910  Biso   1.000  C 
  C10      1.0000 0.42070  0.62560  0.48090  Biso   1.000  C 
  C11      1.0000 0.59130  0.39390  0.44610  Biso   1.000  C 
  C12      1.0000 0.40870  0.60610  0.55390  Biso   1.000  C 
  H9       1.0000 0.56296  0.42997  0.42651  Biso   1.000  H 
  H10      1.0000 0.43704  0.57003  0.57349  Biso   1.000  H 
  C13      1.0000 0.64350  0.36070  0.40430  Biso   1.000  C 
  C14      1.0000 0.35650  0.63930  0.59570  Biso   1.000  C 
  H11      1.0000 0.65046  0.37490  0.35665  Biso   1.000  H 
  H12      1.0000 0.34954  0.62510  0.64335  Biso   1.000  H 
  C15      1.0000 0.52210  0.40610  0.56570  Biso   1.000  C 
  C16      1.0000 0.47790  0.59390  0.43430  Biso   1.000  C 
  C17      1.0000 0.42330  0.37080  0.52150  Biso   1.000  C 
  C18      1.0000 0.57670  0.62920  0.47850  Biso   1.000  C 
  C19      1.0000 0.36890  0.39080  0.56970  Biso   1.000  C 
  C20      1.0000 0.63110  0.60920  0.43030  Biso   1.000  C 
  C21      1.0000 0.40970  0.44340  0.66460  Biso   1.000  C 
  C22      1.0000 0.59030  0.55660  0.33540  Biso   1.000  C 
  C23      1.0000 0.50800  0.48010  0.70940  Biso   1.000  C 
  C24      1.0000 0.49200  0.51990  0.29060  Biso   1.000  C 
  C25      1.0000 0.56380  0.46370  0.66000  Biso   1.000  C 
  C26      1.0000 0.43620  0.53630  0.34000  Biso   1.000  C 
  C27      1.0000 0.66920  0.50850  0.70810  Biso   1.000  C 
  C28      1.0000 0.33080  0.49150  0.29190  Biso   1.000  C 
  H13      1.0000 0.68763  0.57066  0.75105  Biso   1.000  H 
  H14      1.0000 0.31237  0.42934  0.24895  Biso   1.000  H 
  H15      1.0000 0.69680  0.50892  0.66418  Biso   1.000  H 
  H16      1.0000 0.30320  0.49108  0.33582  Biso   1.000  H 
  H17      1.0000 0.69051  0.47420  0.73969  Biso   1.000  H 
  H18      1.0000 0.30949  0.52580  0.26031  Biso   1.000  H 
  C29      1.0000 0.37680  0.30670  0.42020  Biso   1.000  C 
  C30      1.0000 0.62320  0.69330  0.57980  Biso   1.000  C 
  H19      1.0000 0.37735  0.34296  0.38567  Biso   1.000  H 
  H20      1.0000 0.62265  0.65704  0.61433  Biso   1.000  H 
  H21      1.0000 0.31304  0.26879  0.40548  Biso   1.000  H 
  H22      1.0000 0.68696  0.73121  0.59452  Biso   1.000  H 
  H23      1.0000 0.41035  0.26813  0.40543  Biso   1.000  H 
  H24      1.0000 0.58965  0.73187  0.59457  Biso   1.000  H 
  C31      1.0000 0.35110  0.46180  0.71850  Biso   1.000  C 
  C32      1.0000 0.64890  0.53820  0.28150  Biso   1.000  C 
  H25      1.0000 0.34727  0.42364  0.75106  Biso   1.000  H 
  H26      1.0000 0.65273  0.57636  0.24894  Biso   1.000  H 
  H27      1.0000 0.28915  0.44818  0.67764  Biso   1.000  H 
  H28      1.0000 0.71085  0.55182  0.32236  Biso   1.000  H 
  H29      1.0000 0.37924  0.52548  0.76104  Biso   1.000  H 
  H30      1.0000 0.62076  0.47452  0.23896  Biso   1.000  H 
  C33      1.0000 0.26510  0.35320  0.52030  Biso   1.000  C 
  C34      1.0000 0.73490  0.64680  0.47970  Biso   1.000  C 
  C35      1.0000 0.20650  0.27530  0.52170  Biso   1.000  C 
  C36      1.0000 0.79350  0.72470  0.47830  Biso   1.000  C 
  H31      1.0000 0.23297  0.24860  0.55722  Biso   1.000  H 
  H32      1.0000 0.76703  0.75140  0.44278  Biso   1.000  H 
  C37      1.0000 0.11190  0.23660  0.47310  Biso   1.000  C 
  C38      1.0000 0.88810  0.76340  0.52690  Biso   1.000  C 
  H33      1.0000 0.07528  0.18401  0.47523  Biso   1.000  H 
  H34      1.0000 0.92472  0.81599  0.52477  Biso   1.000  H 
  C39      1.0000 0.06980  0.27540  0.42050  Biso   1.000  C 
  C40      1.0000 0.93020  0.72460  0.57950  Biso   1.000  C 
  C41      1.0000 0.12600  0.35230  0.41740  Biso   1.000  C 
  C42      1.0000 0.87400  0.64770  0.58260  Biso   1.000  C 
  H35      1.0000 0.09881  0.37831  0.38151  Biso   1.000  H 
  H36      1.0000 0.90119  0.62169  0.61849  Biso   1.000  H 
  C43      1.0000 0.22270  0.39190  0.46710  Biso   1.000  C 
  C44      1.0000 0.77730  0.60810  0.53290  Biso   1.000  C 
  H37      1.0000 0.25927  0.44449  0.46488  Biso   1.000  H 
  H38      1.0000 0.74073  0.55551  0.53512  Biso   1.000  H 
  C45      1.0000 0.96620  0.23150  0.36510  Biso   1.000  C 
  C46      1.0000 0.03380  0.76850  0.63490  Biso   1.000  C 
  C47      1.0000 0.55550  0.52850  0.81140  Biso   1.000  C 
  C48      1.0000 0.44450  0.47150  0.18860  Biso   1.000  C 
  C49      1.0000 0.58490  0.62420  0.85780  Biso   1.000  C 
  C50      1.0000 0.41510  0.37580  0.14220  Biso   1.000  C 
  C51      1.0000 0.63490  0.66640  0.95150  Biso   1.000  C 
  C52      1.0000 0.36510  0.33360  0.04850  Biso   1.000  C 
  C53      1.0000 0.65830  0.61490  0.00040  Biso   1.000  C 
  C54      1.0000 0.34170  0.38510  0.99960  Biso   1.000  C 
  C55      1.0000 0.62730  0.51910  0.95160  Biso   1.000  C 
  C56      1.0000 0.37270  0.48090  0.04840  Biso   1.000  C 
  C57      1.0000 0.57540  0.47570  0.85880  Biso   1.000  C 
  C58      1.0000 0.42460  0.52430  0.14120  Biso   1.000  C 
  C59      1.0000 0.54380  0.37290  0.80810  Biso   1.000  C 
  C60      1.0000 0.45620  0.62710  0.19190  Biso   1.000  C 
  H39      1.0000 0.47651  0.34566  0.77813  Biso   1.000  H 
  H40      1.0000 0.52349  0.65434  0.22187  Biso   1.000  H 
  H41      1.0000 0.56354  0.34778  0.85058  Biso   1.000  H 
  H42      1.0000 0.43646  0.65222  0.14942  Biso   1.000  H 
  H43      1.0000 0.57076  0.35982  0.76361  Biso   1.000  H 
  H44      1.0000 0.42924  0.64018  0.23639  Biso   1.000  H 
  C61      1.0000 0.56090  0.67910  0.80550  Biso   1.000  C 
  C62      1.0000 0.43910  0.32090  0.19450  Biso   1.000  C 
  H45      1.0000 0.60332  0.68974  0.77595  Biso   1.000  H 
  H46      1.0000 0.39668  0.31026  0.22405  Biso   1.000  H 
  H47      1.0000 0.56590  0.73708  0.84691  Biso   1.000  H 
  H48      1.0000 0.43410  0.26292  0.15309  Biso   1.000  H 
  H49      1.0000 0.49770  0.64537  0.76056  Biso   1.000  H 
  H50      1.0000 0.50230  0.35463  0.23944  Biso   1.000  H 
  C63      1.0000 0.71510  0.66060  0.10070  Biso   1.000  C 
  C64      1.0000 0.28490  0.33940  0.89930  Biso   1.000  C 
  H51      1.0000 0.67847  0.68180  0.13250  Biso   1.000  H 
  H52      1.0000 0.32153  0.31820  0.86750  Biso   1.000  H 
  H53      1.0000 0.77009  0.71200  0.11437  Biso   1.000  H 
  H54      1.0000 0.22991  0.28800  0.88563  Biso   1.000  H 
  H55      1.0000 0.73360  0.61713  0.11979  Biso   1.000  H 
  H56      1.0000 0.26640  0.38287  0.88021  Biso   1.000  H 
  C65      1.0000 0.66780  0.76890  0.00310  Biso   1.000  C 
  C66      1.0000 0.33220  0.23110  0.99690  Biso   1.000  C 
  C67      1.0000 0.62800  0.80720  0.06050  Biso   1.000  C 
  C68      1.0000 0.37200  0.19280  0.93950  Biso   1.000  C 
  H57      1.0000 0.57874  0.76812  0.06650  Biso   1.000  H 
  H58      1.0000 0.42126  0.23188  0.93350  Biso   1.000  H 
  C69      1.0000 0.65800  0.89920  0.10830  Biso   1.000  C 
  C70      1.0000 0.34200  0.10080  0.89170  Biso   1.000  C 
  H59      1.0000 0.63110  0.92246  0.14789  Biso   1.000  H 
  H60      1.0000 0.36890  0.07754  0.85211  Biso   1.000  H 
  C71      1.0000 0.72930  0.95910  0.09810  Biso   1.000  C 
  C72      1.0000 0.27070  0.04090  0.90190  Biso   1.000  C 
  C73      1.0000 0.76910  0.92220  0.04040  Biso   1.000  C 
  C74      1.0000 0.23090  0.07780  0.95960  Biso   1.000  C 
  H61      1.0000 0.81651  0.96140  0.03252  Biso   1.000  H 
  H62      1.0000 0.18349  0.03860  0.96748  Biso   1.000  H 
  C75      1.0000 0.73950  0.82810  0.99420  Biso   1.000  C 
  C76      1.0000 0.26050  0.17190  0.00580  Biso   1.000  C 
  H63      1.0000 0.76833  0.80439  0.95687  Biso   1.000  H 
  H64      1.0000 0.23167  0.19561  0.04313  Biso   1.000  H 
  C77      1.0000 0.76200  0.06070  0.14850  Biso   1.000  C 
  C78      1.0000 0.23800  0.93930  0.85150  Biso   1.000  C 
  C79      1.0000 0.65770  0.46360  0.00090  Biso   1.000  C 
  C80      1.0000 0.34230  0.53640  0.99910  Biso   1.000  C 
  C81      1.0000 0.59760  0.41130  0.02750  Biso   1.000  C 
  C82      1.0000 0.40240  0.58870  0.97250  Biso   1.000  C 
  H65      1.0000 0.53854  0.41292  0.01870  Biso   1.000  H 
  H66      1.0000 0.46146  0.58708  0.98130  Biso   1.000  H 
  C83      1.0000 0.62550  0.35650  0.06710  Biso   1.000  C 
  C84      1.0000 0.37450  0.64350  0.93290  Biso   1.000  C 
  H67      1.0000 0.58362  0.31965  0.08238  Biso   1.000  H 
  H68      1.0000 0.41638  0.68035  0.91762  Biso   1.000  H 
  C85      1.0000 0.71450  0.35520  0.08450  Biso   1.000  C 
  C86      1.0000 0.28550  0.64480  0.91550  Biso   1.000  C 
  C87      1.0000 0.77450  0.41000  0.06010  Biso   1.000  C 
  C88      1.0000 0.22550  0.59000  0.93990  Biso   1.000  C 
  H69      1.0000 0.83497  0.41137  0.07189  Biso   1.000  H 
  H70      1.0000 0.16503  0.58863  0.92811  Biso   1.000  H 
  C89      1.0000 0.74550  0.46270  0.01840  Biso   1.000  C 
  C90      1.0000 0.25450  0.53730  0.98160  Biso   1.000  C 
  H71      1.0000 0.78673  0.49856  0.00184  Biso   1.000  H 
  H72      1.0000 0.21327  0.50144  0.99816  Biso   1.000  H 
  C91      1.0000 0.74490  0.30060  0.13150  Biso   1.000  C 
  C92      1.0000 0.25510  0.69940  0.86850  Biso   1.000  C 
  C93      1.0000 0.59600  0.01180  0.35930  Biso   1.000  C 
  C94      1.0000 0.40400  0.98820  0.64070  Biso   1.000  C 
  H73      1.0000 0.61852  0.06824  0.40910  Biso   1.000  H 
  H74      1.0000 0.38148  0.93176  0.59090  Biso   1.000  H 
  C95      1.0000 0.47700  0.98420  0.41210  Biso   1.000  C 
  C96      1.0000 0.52300  0.01580  0.58790  Biso   1.000  C 
  H75      1.0000 0.53556  0.02962  0.46001  Biso   1.000  H 
  H76      1.0000 0.46444  0.97038  0.53999  Biso   1.000  H 
  H77      1.0000 0.44821  0.94095  0.43296  Biso   1.000  H 
  H78      1.0000 0.55179  0.05905  0.56704  Biso   1.000  H 
  H79      1.0000 0.43600  0.01397  0.39532  Biso   1.000  H 
  H80      1.0000 0.56400  0.98603  0.60468  Biso   1.000  H 
  C97      1.0000 0.47200  0.87310  0.25780  Biso   1.000  C 
  C98      1.0000 0.52800  0.12690  0.74220  Biso   1.000  C 
  H81      1.0000 0.50955  0.89158  0.22614  Biso   1.000  H 
  H82      1.0000 0.49045  0.10842  0.77386  Biso   1.000  H 
  H83      1.0000 0.40745  0.85922  0.22363  Biso   1.000  H 
  H84      1.0000 0.59255  0.14078  0.77637  Biso   1.000  H 
  H85      1.0000 0.47776  0.81931  0.26449  Biso   1.000  H 
  H86      1.0000 0.52224  0.18069  0.73551  Biso   1.000  H 
  C99      1.0000 0.86290  0.94380  0.28910  Biso   1.000  C 
  C100     1.0000 0.13710  0.05620  0.71090  Biso   1.000  C 
  H87      1.0000 0.87670  0.95790  0.24365  Biso   1.000  H 
  H88      1.0000 0.12330  0.04210  0.75635  Biso   1.000  H 
  C101     1.0000 0.85100  0.82780  0.33860  Biso   1.000  C 
  C102     1.0000 0.14900  0.17220  0.66140  Biso   1.000  C 
  H89      1.0000 0.87511  0.85072  0.40384  Biso   1.000  H 
  H90      1.0000 0.12489  0.14928  0.59616  Biso   1.000  H 
  H91      1.0000 0.85413  0.76873  0.31289  Biso   1.000  H 
  H92      1.0000 0.14587  0.23127  0.68711  Biso   1.000  H 
  H93      1.0000 0.78693  0.82165  0.31604  Biso   1.000  H 
  H94      1.0000 0.21307  0.17835  0.68396  Biso   1.000  H 
  C103     1.0000 0.96830  0.86010  0.27880  Biso   1.000  C 
  C104     1.0000 0.03170  0.13990  0.72120  Biso   1.000  C 
  H95      1.0000 0.96750  0.87069  0.22577  Biso   1.000  H 
  H96      1.0000 0.03250  0.12931  0.77423  Biso   1.000  H 
  H97      1.0000 0.94638  0.79505  0.26264  Biso   1.000  H 
  H98      1.0000 0.05362  0.20495  0.73736  Biso   1.000  H 
  H99      1.0000 0.03119  0.89020  0.32443  Biso   1.000  H 
  H100     1.0000 0.96881  0.10980  0.67557  Biso   1.000  H 
