data_image0
_cell_length_a       15.9266
_cell_length_b       17.6257
_cell_length_c       16.9902
_cell_angle_alpha    90
_cell_angle_beta     104.823
_cell_angle_gamma    90

_symmetry_space_group_name_H-M    "P 1"
_symmetry_int_tables_number       1

loop_
  _symmetry_equiv_pos_as_xyz
  'x, y, z'

loop_
  _atom_site_label
  _atom_site_occupancy
  _atom_site_fract_x
  _atom_site_fract_y
  _atom_site_fract_z
  _atom_site_thermal_displace_type
  _atom_site_B_iso_or_equiv
  _atom_site_type_symbol
  Co1      1.0000 0.52605  0.55042  0.22979  Biso   1.000  Co
  N1       1.0000 0.63069  0.47877  0.24885  Biso   1.000  N 
  C1       1.0000 0.64700  0.42642  0.19840  Biso   1.000  C 
  C2       1.0000 0.58570  0.40060  0.12230  Biso   1.000  C 
  H1       1.0000 0.57470  0.34730  0.12610  Biso   1.000  H 
  H2       1.0000 0.53210  0.42810  0.11430  Biso   1.000  H 
  H3       1.0000 0.61030  0.40960  0.07720  Biso   1.000  H 
  N2       1.0000 0.72850  0.39896  0.22672  Biso   1.000  N 
  C3       1.0000 0.77290  0.33980  0.19210  Biso   1.000  C 
  C4       1.0000 0.78670  0.26810  0.24480  Biso   1.000  C 
  C5       1.0000 0.71330  0.23190  0.25520  Biso   1.000  C 
  H4       1.0000 0.67730  0.21850  0.20180  Biso   1.000  H 
  H5       1.0000 0.68070  0.26790  0.27890  Biso   1.000  H 
  C6       1.0000 0.72710  0.16020  0.30790  Biso   1.000  C 
  H6       1.0000 0.67130  0.14120  0.31220  Biso   1.000  H 
  H7       1.0000 0.76140  0.17270  0.36220  Biso   1.000  H 
  N3       1.0000 0.77150  0.10104  0.27328  Biso   1.000  N 
  C7       1.0000 0.73500  0.06515  0.20130  Biso   1.000  C 
  H8       1.0000 0.67950  0.07280  0.16790  Biso   1.000  H 
  C8       1.0000 0.79517  0.01664  0.18820  Biso   1.000  C 
  H9       1.0000 0.78780  0.98470  0.14340  Biso   1.000  H 
  N4       1.0000 0.86931  0.02123  0.25115  Biso   1.000  N 
  C9       1.0000 0.85300  0.07358  0.30160  Biso   1.000  C 
  C10      1.0000 0.91430  0.09940  0.37770  Biso   1.000  C 
  H10      1.0000 0.96790  0.07190  0.38570  Biso   1.000  H 
  H11      1.0000 0.88970  0.09040  0.42280  Biso   1.000  H 
  H12      1.0000 0.92530  0.15270  0.37390  Biso   1.000  H 
  Co2      1.0000 0.97395  0.94958  0.27021  Biso   1.000  Co
  O1       1.0000 0.99420  0.85056  0.33049  Biso   1.000  O 
  C11      1.0000 0.97680  0.86350  0.39540  Biso   1.000  C 
  O2       1.0000 0.95290  0.92800  0.41010  Biso   1.000  O 
  C12      1.0000 0.97500  0.79944  0.45486  Biso   1.000  C 
  C13      1.0000 0.91550  0.80640  0.49980  Biso   1.000  C 
  H13      1.0000 0.88050  0.84930  0.49330  Biso   1.000  H 
  C14      1.0000 0.90590  0.75050  0.55510  Biso   1.000  C 
  H14      1.0000 0.86440  0.75720  0.58430  Biso   1.000  H 
  C15      1.0000 0.95552  0.68652  0.56751  Biso   1.000  C 
  C16      1.0000 0.94320  0.63286  0.63291  Biso   1.000  C 
  O3       1.0000 0.00638  0.59151  0.67079  Biso   1.000  O 
  Co3      1.0000 0.97395  0.55042  0.77021  Biso   1.000  Co
  N5       1.0000 0.86931  0.47877  0.75115  Biso   1.000  N 
  C17      1.0000 0.79517  0.48336  0.68820  Biso   1.000  C 
  H15      1.0000 0.78780  0.51530  0.64340  Biso   1.000  H 
  C18      1.0000 0.73500  0.43485  0.70130  Biso   1.000  C 
  H16      1.0000 0.67950  0.42720  0.66790  Biso   1.000  H 
  N6       1.0000 0.77150  0.39896  0.77328  Biso   1.000  N 
  C19      1.0000 0.85300  0.42642  0.80160  Biso   1.000  C 
  C20      1.0000 0.91430  0.40060  0.87770  Biso   1.000  C 
  H17      1.0000 0.92530  0.34730  0.87390  Biso   1.000  H 
  H18      1.0000 0.88970  0.40960  0.92280  Biso   1.000  H 
  H19      1.0000 0.96790  0.42810  0.88570  Biso   1.000  H 
  C21      1.0000 0.72710  0.33980  0.80790  Biso   1.000  C 
  C22      1.0000 0.71330  0.26810  0.75520  Biso   1.000  C 
  H20      1.0000 0.68070  0.23210  0.77890  Biso   1.000  H 
  C23      1.0000 0.78670  0.23190  0.74480  Biso   1.000  C 
  H21      1.0000 0.82270  0.21850  0.79820  Biso   1.000  H 
  H22      1.0000 0.81930  0.26790  0.72110  Biso   1.000  H 
  C24      1.0000 0.77290  0.16020  0.69210  Biso   1.000  C 
  H23      1.0000 0.73860  0.17270  0.63780  Biso   1.000  H 
  H24      1.0000 0.82870  0.14120  0.68780  Biso   1.000  H 
  N7       1.0000 0.72850  0.10104  0.72672  Biso   1.000  N 
  C25      1.0000 0.64700  0.07358  0.69840  Biso   1.000  C 
  C26      1.0000 0.58570  0.09940  0.62230  Biso   1.000  C 
  H25      1.0000 0.53210  0.07190  0.61430  Biso   1.000  H 
  H26      1.0000 0.57470  0.15270  0.62610  Biso   1.000  H 
  H27      1.0000 0.61030  0.09040  0.57720  Biso   1.000  H 
  N8       1.0000 0.63069  0.02123  0.74885  Biso   1.000  N 
  C27      1.0000 0.70483  0.01664  0.81180  Biso   1.000  C 
  C28      1.0000 0.76500  0.06515  0.79870  Biso   1.000  C 
  H28      1.0000 0.82050  0.07280  0.83210  Biso   1.000  H 
  H29      1.0000 0.71220  0.98470  0.85660  Biso   1.000  H 
  Co4      1.0000 0.52605  0.94958  0.72979  Biso   1.000  Co
  O4       1.0000 0.49362  0.90849  0.82921  Biso   1.000  O 
  C29      1.0000 0.55680  0.86714  0.86709  Biso   1.000  C 
  O5       1.0000 0.62809  0.86707  0.85050  Biso   1.000  O 
  C30      1.0000 0.54448  0.81348  0.93249  Biso   1.000  C 
  C31      1.0000 0.59410  0.74950  0.94490  Biso   1.000  C 
  H30      1.0000 0.63560  0.74280  0.91570  Biso   1.000  H 
  C32      1.0000 0.58450  0.69360  0.00020  Biso   1.000  C 
  C33      1.0000 0.52500  0.70056  0.04514  Biso   1.000  C 
  C34      1.0000 0.52320  0.63650  0.10460  Biso   1.000  C 
  O6       1.0000 0.50580  0.64944  0.16951  Biso   1.000  O 
  O7       1.0000 0.54710  0.57200  0.08990  Biso   1.000  O 
  C35      1.0000 0.47115  0.76670  0.03448  Biso   1.000  C 
  C36      1.0000 0.40520  0.77660  0.07620  Biso   1.000  C 
  H31      1.0000 0.39490  0.73820  0.11020  Biso   1.000  H 
  C37      1.0000 0.35730  0.84050  0.06740  Biso   1.000  C 
  H32      1.0000 0.31370  0.84510  0.09460  Biso   1.000  H 
  C38      1.0000 0.37200  0.90020  0.01810  Biso   1.000  C 
  H33      1.0000 0.34000  0.94480  0.01450  Biso   1.000  H 
  C39      1.0000 0.43350  0.89280  0.97550  Biso   1.000  C 
  H34      1.0000 0.44340  0.93270  0.94320  Biso   1.000  H 
  C40      1.0000 0.48249  0.82509  0.97969  Biso   1.000  C 
  H35      1.0000 0.61950  0.65070  0.00670  Biso   1.000  H 
  O8       1.0000 0.50580  0.85056  0.66951  Biso   1.000  O 
  C41      1.0000 0.52320  0.86350  0.60460  Biso   1.000  C 
  O9       1.0000 0.54710  0.92800  0.58990  Biso   1.000  O 
  C42      1.0000 0.52500  0.79944  0.54514  Biso   1.000  C 
  C43      1.0000 0.47115  0.73330  0.53448  Biso   1.000  C 
  C44      1.0000 0.48249  0.67491  0.47969  Biso   1.000  C 
  C45      1.0000 0.43350  0.60720  0.47550  Biso   1.000  C 
  C46      1.0000 0.37200  0.59980  0.51810  Biso   1.000  C 
  H36      1.0000 0.34000  0.55520  0.51450  Biso   1.000  H 
  C47      1.0000 0.35730  0.65950  0.56740  Biso   1.000  C 
  H37      1.0000 0.31370  0.65490  0.59460  Biso   1.000  H 
  C48      1.0000 0.40520  0.72340  0.57620  Biso   1.000  C 
  H38      1.0000 0.39490  0.76180  0.61020  Biso   1.000  H 
  H39      1.0000 0.44340  0.56730  0.44320  Biso   1.000  H 
  C49      1.0000 0.54448  0.68652  0.43249  Biso   1.000  C 
  C50      1.0000 0.55680  0.63286  0.36709  Biso   1.000  C 
  O10      1.0000 0.49362  0.59151  0.32921  Biso   1.000  O 
  O11      1.0000 0.62809  0.63293  0.35050  Biso   1.000  O 
  C51      1.0000 0.59410  0.75050  0.44490  Biso   1.000  C 
  H40      1.0000 0.63560  0.75720  0.41570  Biso   1.000  H 
  C52      1.0000 0.58450  0.80640  0.50020  Biso   1.000  C 
  H41      1.0000 0.61950  0.84930  0.50670  Biso   1.000  H 
  N9       1.0000 0.41771  0.01691  0.68964  Biso   1.000  N 
  C53      1.0000 0.38820  0.06559  0.73650  Biso   1.000  C 
  C54      1.0000 0.43300  0.08720  0.82030  Biso   1.000  C 
  H42      1.0000 0.48820  0.06180  0.83610  Biso   1.000  H 
  H43      1.0000 0.44190  0.14110  0.82310  Biso   1.000  H 
  H44      1.0000 0.39830  0.07270  0.85640  Biso   1.000  H 
  N10      1.0000 0.30895  0.09163  0.69669  Biso   1.000  N 
  C55      1.0000 0.28740  0.05810  0.62270  Biso   1.000  C 
  H45      1.0000 0.23610  0.06510  0.58240  Biso   1.000  H 
  C56      1.0000 0.35460  0.01240  0.61820  Biso   1.000  C 
  H46      1.0000 0.35720  0.98280  0.57360  Biso   1.000  H 
  C57      1.0000 0.25490  0.14240  0.73230  Biso   1.000  C 
  H47      1.0000 0.19430  0.13430  0.70440  Biso   1.000  H 
  H48      1.0000 0.26240  0.12890  0.78900  Biso   1.000  H 
  C58      1.0000 0.27590  0.22609  0.72720  Biso   1.000  C 
  H49      1.0000 0.33750  0.23420  0.75050  Biso   1.000  H 
  H50      1.0000 0.26220  0.24170  0.67060  Biso   1.000  H 
  C59      1.0000 0.22410  0.27391  0.77280  Biso   1.000  C 
  H51      1.0000 0.23780  0.25830  0.82940  Biso   1.000  H 
  H52      1.0000 0.16250  0.26580  0.74950  Biso   1.000  H 
  C60      1.0000 0.24510  0.35760  0.76770  Biso   1.000  C 
  H53      1.0000 0.23760  0.37110  0.71100  Biso   1.000  H 
  H54      1.0000 0.30570  0.36570  0.79560  Biso   1.000  H 
  N11      1.0000 0.19105  0.40837  0.80331  Biso   1.000  N 
  C61      1.0000 0.21260  0.44190  0.87730  Biso   1.000  C 
  H55      1.0000 0.26390  0.43490  0.91760  Biso   1.000  H 
  C62      1.0000 0.14540  0.48760  0.88180  Biso   1.000  C 
  H56      1.0000 0.14280  0.51720  0.92640  Biso   1.000  H 
  N12      1.0000 0.08229  0.48309  0.81036  Biso   1.000  N 
  C63      1.0000 0.11180  0.43441  0.76350  Biso   1.000  C 
  C64      1.0000 0.06700  0.41280  0.67970  Biso   1.000  C 
  H57      1.0000 0.10170  0.42730  0.64360  Biso   1.000  H 
  H58      1.0000 0.01180  0.43820  0.66390  Biso   1.000  H 
  H59      1.0000 0.05810  0.35890  0.67690  Biso   1.000  H 
  H60      1.0000 0.67730  0.28150  0.70180  Biso   1.000  H 
  H61      1.0000 0.67130  0.35880  0.81220  Biso   1.000  H 
  H62      1.0000 0.76140  0.32730  0.86220  Biso   1.000  H 
  O12      1.0000 0.95290  0.57200  0.91010  Biso   1.000  O 
  C65      1.0000 0.97680  0.63650  0.89540  Biso   1.000  C 
  O13      1.0000 0.99420  0.64944  0.83049  Biso   1.000  O 
  C66      1.0000 0.97500  0.70056  0.95486  Biso   1.000  C 
  C67      1.0000 0.91550  0.69360  0.99980  Biso   1.000  C 
  H63      1.0000 0.88050  0.65070  0.99330  Biso   1.000  H 
  C68      1.0000 0.90590  0.74950  0.05510  Biso   1.000  C 
  H64      1.0000 0.86440  0.74280  0.08430  Biso   1.000  H 
  C69      1.0000 0.95552  0.81348  0.06751  Biso   1.000  C 
  C70      1.0000 0.94320  0.86714  0.13291  Biso   1.000  C 
  O14      1.0000 0.00638  0.90849  0.17079  Biso   1.000  O 
  O15      1.0000 0.87191  0.86707  0.14950  Biso   1.000  O 
  C71      1.0000 0.01751  0.82509  0.02031  Biso   1.000  C 
  C72      1.0000 0.06650  0.89280  0.02450  Biso   1.000  C 
  H65      1.0000 0.05660  0.93270  0.05680  Biso   1.000  H 
  C73      1.0000 0.12800  0.90020  0.98190  Biso   1.000  C 
  C74      1.0000 0.14270  0.84050  0.93260  Biso   1.000  C 
  C75      1.0000 0.09480  0.77660  0.92380  Biso   1.000  C 
  H66      1.0000 0.10510  0.73820  0.88980  Biso   1.000  H 
  C76      1.0000 0.02885  0.76670  0.96552  Biso   1.000  C 
  H67      1.0000 0.18630  0.84510  0.90540  Biso   1.000  H 
  H68      1.0000 0.16000  0.94480  0.98550  Biso   1.000  H 
  O16      1.0000 0.87191  0.63293  0.64950  Biso   1.000  O 
  C77      1.0000 0.01751  0.67491  0.52031  Biso   1.000  C 
  C78      1.0000 0.06650  0.60720  0.52450  Biso   1.000  C 
  C79      1.0000 0.12800  0.59980  0.48190  Biso   1.000  C 
  H69      1.0000 0.16000  0.55520  0.48550  Biso   1.000  H 
  C80      1.0000 0.14270  0.65950  0.43260  Biso   1.000  C 
  H70      1.0000 0.18630  0.65490  0.40540  Biso   1.000  H 
  C81      1.0000 0.09480  0.72340  0.42380  Biso   1.000  C 
  H71      1.0000 0.10510  0.76180  0.38980  Biso   1.000  H 
  C82      1.0000 0.02885  0.73330  0.46552  Biso   1.000  C 
  H72      1.0000 0.05660  0.56730  0.55680  Biso   1.000  H 
  N13      1.0000 0.08229  0.01691  0.31036  Biso   1.000  N 
  C83      1.0000 0.11180  0.06559  0.26350  Biso   1.000  C 
  C84      1.0000 0.06700  0.08720  0.17970  Biso   1.000  C 
  H73      1.0000 0.01180  0.06180  0.16390  Biso   1.000  H 
  H74      1.0000 0.10170  0.07270  0.14360  Biso   1.000  H 
  H75      1.0000 0.05810  0.14110  0.17690  Biso   1.000  H 
  N14      1.0000 0.19105  0.09163  0.30331  Biso   1.000  N 
  C85      1.0000 0.24510  0.14240  0.26770  Biso   1.000  C 
  C86      1.0000 0.22410  0.22609  0.27280  Biso   1.000  C 
  H76      1.0000 0.16250  0.23420  0.24950  Biso   1.000  H 
  H77      1.0000 0.23780  0.24170  0.32940  Biso   1.000  H 
  C87      1.0000 0.27590  0.27391  0.22720  Biso   1.000  C 
  H78      1.0000 0.26220  0.25830  0.17060  Biso   1.000  H 
  H79      1.0000 0.33750  0.26580  0.25050  Biso   1.000  H 
  C88      1.0000 0.25490  0.35760  0.23230  Biso   1.000  C 
  H80      1.0000 0.19430  0.36570  0.20440  Biso   1.000  H 
  H81      1.0000 0.26240  0.37110  0.28900  Biso   1.000  H 
  N15      1.0000 0.30895  0.40837  0.19669  Biso   1.000  N 
  C89      1.0000 0.28740  0.44190  0.12270  Biso   1.000  C 
  H82      1.0000 0.23610  0.43490  0.08240  Biso   1.000  H 
  C90      1.0000 0.35460  0.48760  0.11820  Biso   1.000  C 
  H83      1.0000 0.35720  0.51720  0.07360  Biso   1.000  H 
  N16      1.0000 0.41771  0.48309  0.18964  Biso   1.000  N 
  C91      1.0000 0.38820  0.43441  0.23650  Biso   1.000  C 
  C92      1.0000 0.43300  0.41280  0.32030  Biso   1.000  C 
  H84      1.0000 0.39830  0.42730  0.35640  Biso   1.000  H 
  H85      1.0000 0.44190  0.35890  0.32310  Biso   1.000  H 
  H86      1.0000 0.48820  0.43820  0.33610  Biso   1.000  H 
  H87      1.0000 0.23760  0.12890  0.21100  Biso   1.000  H 
  H88      1.0000 0.30570  0.13430  0.29560  Biso   1.000  H 
  C93      1.0000 0.21260  0.05810  0.37730  Biso   1.000  C 
  H89      1.0000 0.26390  0.06510  0.41760  Biso   1.000  H 
  C94      1.0000 0.14540  0.01240  0.38180  Biso   1.000  C 
  H90      1.0000 0.14280  0.98280  0.42640  Biso   1.000  H 
  H91      1.0000 0.81930  0.23210  0.22110  Biso   1.000  H 
  H92      1.0000 0.82270  0.28150  0.29820  Biso   1.000  H 
  H93      1.0000 0.73860  0.32730  0.13780  Biso   1.000  H 
  H94      1.0000 0.82870  0.35880  0.18780  Biso   1.000  H 
  C95      1.0000 0.76500  0.43485  0.29870  Biso   1.000  C 
  H95      1.0000 0.82050  0.42720  0.33210  Biso   1.000  H 
  C96      1.0000 0.70483  0.48336  0.31180  Biso   1.000  C 
  H96      1.0000 0.71220  0.51530  0.35660  Biso   1.000  H 
