data_image0
_cell_length_a       24.588
_cell_length_b       9.733
_cell_length_c       27.611
_cell_angle_alpha    90
_cell_angle_beta     113.49
_cell_angle_gamma    90

_symmetry_space_group_name_H-M    "P 1"
_symmetry_int_tables_number       1

loop_
  _symmetry_equiv_pos_as_xyz
  'x, y, z'

loop_
  _atom_site_label
  _atom_site_occupancy
  _atom_site_fract_x
  _atom_site_fract_y
  _atom_site_fract_z
  _atom_site_thermal_displace_type
  _atom_site_B_iso_or_equiv
  _atom_site_type_symbol
  Sn1      1.0000 0.26903  0.09028  0.23091  Biso   1.000  Sn
  O1       1.0000 0.28622  0.25560  0.18336  Biso   1.000  O 
  C1       1.0000 0.27220  0.37720  0.19100  Biso   1.000  C 
  C2       1.0000 0.28600  0.49350  0.16160  Biso   1.000  C 
  C3       1.0000 0.29760  0.45020  0.11350  Biso   1.000  C 
  H1       1.0000 0.33000  0.37000  0.12600  Biso   1.000  H 
  H2       1.0000 0.31800  0.53400  0.10100  Biso   1.000  H 
  N1       1.0000 0.24430  0.40300  0.07060  Biso   1.000  N 
  C4       1.0000 0.23730  0.27380  0.05930  Biso   1.000  C 
  C5       1.0000 0.18440  0.22350  0.01700  Biso   1.000  C 
  C6       1.0000 0.17500  0.07740  0.00660  Biso   1.000  C 
  C7       1.0000 0.12070  0.03330  0.96480  Biso   1.000  C 
  C8       1.0000 0.11120  0.88830  0.95520  Biso   1.000  C 
  H3       1.0000 0.07000  0.85800  0.92400  Biso   1.000  H 
  C9       1.0000 0.15340  0.79350  0.98620  Biso   1.000  C 
  H4       1.0000 0.14200  0.68600  0.97700  Biso   1.000  H 
  C10      1.0000 0.20480  0.83740  0.02580  Biso   1.000  C 
  H5       1.0000 0.23500  0.75900  0.04900  Biso   1.000  H 
  C11      1.0000 0.21600  0.97470  0.03620  Biso   1.000  C 
  H6       1.0000 0.25700  0.00600  0.06800  Biso   1.000  H 
  C12      1.0000 0.07930  0.13730  0.93370  Biso   1.000  C 
  H7       1.0000 0.04000  0.09900  0.90200  Biso   1.000  H 
  C13      1.0000 0.09090  0.27090  0.94380  Biso   1.000  C 
  H8       1.0000 0.05700  0.34100  0.91900  Biso   1.000  H 
  C14      1.0000 0.14200  0.32140  0.98510  Biso   1.000  C 
  O2       1.0000 0.14980  0.45160  0.99330  Biso   1.000  O 
  H9       1.0000 0.18677  0.47992  0.98963  Biso   1.000  H 
  H10      1.0000 0.27100  0.20200  0.08200  Biso   1.000  H 
  H11      1.0000 0.24800  0.56100  0.14700  Biso   1.000  H 
  H12      1.0000 0.32300  0.55100  0.18900  Biso   1.000  H 
  O3       1.0000 0.24820  0.40170  0.22198  Biso   1.000  O 
  Sn2      1.0000 0.23097  0.59028  0.26909  Biso   1.000  Sn
  C15      1.0000 0.19620  0.44040  0.30520  Biso   1.000  C 
  H13      1.0000 0.18900  0.34500  0.28300  Biso   1.000  H 
  C16      1.0000 0.13970  0.47510  0.31170  Biso   1.000  C 
  C17      1.0000 0.11450  0.36410  0.33480  Biso   1.000  C 
  H14      1.0000 0.10900  0.27200  0.31200  Biso   1.000  H 
  C18      1.0000 0.05990  0.39880  0.34180  Biso   1.000  C 
  H15      1.0000 0.02800  0.42100  0.30300  Biso   1.000  H 
  H16      1.0000 0.06300  0.49400  0.36300  Biso   1.000  H 
  H17      1.0000 0.04000  0.31700  0.35500  Biso   1.000  H 
  H18      1.0000 0.14700  0.33900  0.37400  Biso   1.000  H 
  H19      1.0000 0.14600  0.56700  0.33500  Biso   1.000  H 
  H20      1.0000 0.10700  0.50000  0.27300  Biso   1.000  H 
  H21      1.0000 0.22900  0.42100  0.34500  Biso   1.000  H 
  O4       1.0000 0.21378  0.75560  0.31664  Biso   1.000  O 
  C19      1.0000 0.22780  0.87720  0.30900  Biso   1.000  C 
  C20      1.0000 0.21400  0.99350  0.33840  Biso   1.000  C 
  C21      1.0000 0.20240  0.95020  0.38650  Biso   1.000  C 
  H22      1.0000 0.17000  0.87000  0.37400  Biso   1.000  H 
  N2       1.0000 0.25570  0.90300  0.42940  Biso   1.000  N 
  C22      1.0000 0.26270  0.77380  0.44070  Biso   1.000  C 
  H23      1.0000 0.22900  0.70200  0.41800  Biso   1.000  H 
  C23      1.0000 0.31560  0.72350  0.48300  Biso   1.000  C 
  C24      1.0000 0.32500  0.57740  0.49340  Biso   1.000  C 
  C25      1.0000 0.37930  0.53330  0.53520  Biso   1.000  C 
  C26      1.0000 0.38880  0.38830  0.54480  Biso   1.000  C 
  C27      1.0000 0.34660  0.29350  0.51380  Biso   1.000  C 
  H24      1.0000 0.35800  0.18600  0.52300  Biso   1.000  H 
  C28      1.0000 0.29520  0.33740  0.47420  Biso   1.000  C 
  H25      1.0000 0.26500  0.25900  0.45100  Biso   1.000  H 
  C29      1.0000 0.28400  0.47470  0.46380  Biso   1.000  C 
  H26      1.0000 0.24300  0.50600  0.43200  Biso   1.000  H 
  H27      1.0000 0.43000  0.35800  0.57600  Biso   1.000  H 
  C30      1.0000 0.42070  0.63730  0.56630  Biso   1.000  C 
  H28      1.0000 0.46000  0.59900  0.59800  Biso   1.000  H 
  C31      1.0000 0.40910  0.77090  0.55620  Biso   1.000  C 
  H29      1.0000 0.44300  0.84100  0.58100  Biso   1.000  H 
  C32      1.0000 0.35800  0.82140  0.51490  Biso   1.000  C 
  O5       1.0000 0.35020  0.95160  0.50670  Biso   1.000  O 
  H30      1.0000 0.31323  0.97992  0.51037  Biso   1.000  H 
  H31      1.0000 0.18200  0.03400  0.39900  Biso   1.000  H 
  H32      1.0000 0.25200  0.06100  0.35300  Biso   1.000  H 
  H33      1.0000 0.17700  0.05100  0.31100  Biso   1.000  H 
  O6       1.0000 0.25180  0.90170  0.27802  Biso   1.000  O 
  C33      1.0000 0.17050  0.67710  0.19610  Biso   1.000  C 
  C34      1.0000 0.12700  0.57640  0.15800  Biso   1.000  C 
  H34      1.0000 0.09900  0.52900  0.17500  Biso   1.000  H 
  C35      1.0000 0.08560  0.64750  0.10620  Biso   1.000  C 
  H35      1.0000 0.11300  0.71400  0.09300  Biso   1.000  H 
  C36      1.0000 0.05570  0.56800  0.06530  Biso   1.000  C 
  H36      1.0000 0.08900  0.50200  0.06200  Biso   1.000  H 
  H37      1.0000 0.03000  0.51100  0.08200  Biso   1.000  H 
  H38      1.0000 0.03000  0.62500  0.03000  Biso   1.000  H 
  H39      1.0000 0.05800  0.72600  0.11200  Biso   1.000  H 
  H40      1.0000 0.15000  0.49200  0.14900  Biso   1.000  H 
  H41      1.0000 0.14400  0.75500  0.20400  Biso   1.000  H 
  H42      1.0000 0.19500  0.72200  0.17600  Biso   1.000  H 
  C37      1.0000 0.32530  0.61180  0.30360  Biso   1.000  C 
  H43      1.0000 0.33700  0.70400  0.28800  Biso   1.000  H 
  H44      1.0000 0.34500  0.52600  0.29100  Biso   1.000  H 
  C38      1.0000 0.35390  0.62220  0.36220  Biso   1.000  C 
  H45      1.0000 0.34200  0.53000  0.37800  Biso   1.000  H 
  C39      1.0000 0.42070  0.63530  0.38590  Biso   1.000  C 
  H46      1.0000 0.43900  0.54700  0.37400  Biso   1.000  H 
  H47      1.0000 0.43200  0.72300  0.36800  Biso   1.000  H 
  C40      1.0000 0.44720  0.66400  0.43910  Biso   1.000  C 
  H48      1.0000 0.42600  0.74500  0.45300  Biso   1.000  H 
  H49      1.0000 0.43700  0.57300  0.45500  Biso   1.000  H 
  H50      1.0000 0.49500  0.65600  0.45500  Biso   1.000  H 
  H51      1.0000 0.33500  0.70900  0.37500  Biso   1.000  H 
  C41      1.0000 0.17470  0.11180  0.19640  Biso   1.000  C 
  H52      1.0000 0.16300  0.20400  0.21200  Biso   1.000  H 
  H53      1.0000 0.15500  0.02600  0.20900  Biso   1.000  H 
  C42      1.0000 0.14610  0.12220  0.13780  Biso   1.000  C 
  C43      1.0000 0.07930  0.13530  0.11410  Biso   1.000  C 
  H54      1.0000 0.06100  0.04700  0.12600  Biso   1.000  H 
  C44      1.0000 0.05280  0.16400  0.06090  Biso   1.000  C 
  H55      1.0000 0.06300  0.07300  0.04500  Biso   1.000  H 
  H56      1.0000 0.07400  0.24500  0.04700  Biso   1.000  H 
  H57      1.0000 0.00500  0.15600  0.04500  Biso   1.000  H 
  H58      1.0000 0.06800  0.22300  0.13200  Biso   1.000  H 
  H59      1.0000 0.15800  0.03000  0.12200  Biso   1.000  H 
  H60      1.0000 0.16500  0.20900  0.12500  Biso   1.000  H 
  C45      1.0000 0.32950  0.17710  0.30390  Biso   1.000  C 
  H61      1.0000 0.30500  0.22200  0.32400  Biso   1.000  H 
  H62      1.0000 0.35600  0.25500  0.29600  Biso   1.000  H 
  C46      1.0000 0.37300  0.07640  0.34200  Biso   1.000  C 
  H63      1.0000 0.40100  0.02900  0.32500  Biso   1.000  H 
  C47      1.0000 0.41440  0.14750  0.39380  Biso   1.000  C 
  C48      1.0000 0.44430  0.06800  0.43470  Biso   1.000  C 
  H64      1.0000 0.41100  0.00200  0.43800  Biso   1.000  H 
  H65      1.0000 0.47000  0.12500  0.47000  Biso   1.000  H 
  H66      1.0000 0.47000  0.01100  0.41800  Biso   1.000  H 
  H67      1.0000 0.38700  0.21400  0.40700  Biso   1.000  H 
  H68      1.0000 0.44200  0.22600  0.38800  Biso   1.000  H 
  H69      1.0000 0.35000  0.99200  0.35100  Biso   1.000  H 
  C49      1.0000 0.30380  0.94040  0.19480  Biso   1.000  C 
  H70      1.0000 0.27100  0.92100  0.15500  Biso   1.000  H 
  C50      1.0000 0.36030  0.97510  0.18830  Biso   1.000  C 
  C51      1.0000 0.38550  0.86410  0.16520  Biso   1.000  C 
  C52      1.0000 0.44010  0.89880  0.15820  Biso   1.000  C 
  H71      1.0000 0.43700  0.99400  0.13700  Biso   1.000  H 
  H72      1.0000 0.46000  0.81700  0.14500  Biso   1.000  H 
  H73      1.0000 0.47200  0.92100  0.19700  Biso   1.000  H 
  H74      1.0000 0.35300  0.83900  0.12600  Biso   1.000  H 
  H75      1.0000 0.39100  0.77200  0.18800  Biso   1.000  H 
  H76      1.0000 0.39300  0.00000  0.22700  Biso   1.000  H 
  H77      1.0000 0.35400  0.06700  0.16500  Biso   1.000  H 
  H78      1.0000 0.31100  0.84500  0.21700  Biso   1.000  H 
