data_image0
_cell_length_a       14.0364
_cell_length_b       23.7595
_cell_length_c       8.9706
_cell_angle_alpha    90
_cell_angle_beta     90
_cell_angle_gamma    90

_symmetry_space_group_name_H-M    "P 1"
_symmetry_int_tables_number       1

loop_
  _symmetry_equiv_pos_as_xyz
  'x, y, z'

loop_
  _atom_site_label
  _atom_site_occupancy
  _atom_site_fract_x
  _atom_site_fract_y
  _atom_site_fract_z
  _atom_site_thermal_displace_type
  _atom_site_B_iso_or_equiv
  _atom_site_type_symbol
  Co1      1.0000 0.50000  0.22499  0.25000  Biso   1.000  Co
  N1       1.0000 0.44223  0.16027  0.38990  Biso   1.000  N 
  C1       1.0000 0.49990  0.12130  0.45060  Biso   1.000  C 
  C2       1.0000 0.46800  0.07964  0.54400  Biso   1.000  C 
  C3       1.0000 0.37090  0.07749  0.57980  Biso   1.000  C 
  C4       1.0000 0.31090  0.11765  0.51720  Biso   1.000  C 
  C5       1.0000 0.34926  0.15792  0.42340  Biso   1.000  C 
  H1       1.0000 0.30790  0.18510  0.38080  Biso   1.000  H 
  H2       1.0000 0.24460  0.11740  0.53860  Biso   1.000  H 
  C6       1.0000 0.33360  0.03412  0.67280  Biso   1.000  C 
  C7       1.0000 0.30099  0.99633  0.74700  Biso   1.000  C 
  C8       1.0000 0.26000  0.95298  0.82560  Biso   1.000  C 
  C9       1.0000 0.22170  0.91455  0.88820  Biso   1.000  C 
  C10      1.0000 0.17250  0.87033  0.96460  Biso   1.000  C 
  C11      1.0000 0.13310  0.82501  0.88840  Biso   1.000  C 
  H3       1.0000 0.14000  0.82160  0.78350  Biso   1.000  H 
  C12      1.0000 0.08360  0.78506  0.96930  Biso   1.000  C 
  H4       1.0000 0.05600  0.75440  0.91670  Biso   1.000  H 
  N2       1.0000 0.07224  0.78701  0.11690  Biso   1.000  N 
  Co2      1.0000 0.00000  0.72499  0.25000  Biso   1.000  Co
  N3       1.0000 0.05777  0.66027  0.11010  Biso   1.000  N 
  C13      1.0000 0.00010  0.62130  0.04940  Biso   1.000  C 
  H5       1.0000 0.93400  0.62270  0.07240  Biso   1.000  H 
  C14      1.0000 0.03200  0.57964  0.95600  Biso   1.000  C 
  C15      1.0000 0.12910  0.57749  0.92020  Biso   1.000  C 
  C16      1.0000 0.16640  0.53412  0.82720  Biso   1.000  C 
  C17      1.0000 0.19901  0.49633  0.75300  Biso   1.000  C 
  C18      1.0000 0.24000  0.45298  0.67440  Biso   1.000  C 
  C19      1.0000 0.27830  0.41455  0.61180  Biso   1.000  C 
  C20      1.0000 0.32750  0.37033  0.53540  Biso   1.000  C 
  C21      1.0000 0.36690  0.32501  0.61160  Biso   1.000  C 
  C22      1.0000 0.41640  0.28506  0.53070  Biso   1.000  C 
  N4       1.0000 0.42776  0.28701  0.38310  Biso   1.000  N 
  C23      1.0000 0.38820  0.33059  0.30990  Biso   1.000  C 
  C24      1.0000 0.33840  0.37287  0.38050  Biso   1.000  C 
  H6       1.0000 0.31210  0.40320  0.32510  Biso   1.000  H 
  H7       1.0000 0.39490  0.33230  0.20460  Biso   1.000  H 
  H8       1.0000 0.44400  0.25440  0.58330  Biso   1.000  H 
  H9       1.0000 0.36000  0.32160  0.71650  Biso   1.000  H 
  C25      1.0000 0.18910  0.61765  0.98280  Biso   1.000  C 
  H10      1.0000 0.25540  0.61740  0.96140  Biso   1.000  H 
  C26      1.0000 0.15074  0.65792  0.07660  Biso   1.000  C 
  H11      1.0000 0.19210  0.68510  0.11920  Biso   1.000  H 
  H12      1.0000 0.98890  0.55270  0.91620  Biso   1.000  H 
  O1       1.0000 0.12527  0.72092  0.37990  Biso   1.000  O 
  N5       1.0000 0.13635  0.74067  0.51220  Biso   1.000  N 
  O2       1.0000 0.14270  0.70803  0.61640  Biso   1.000  O 
  O3       1.0000 0.13855  0.79209  0.53120  Biso   1.000  O 
  N6       1.0000 0.94223  0.66027  0.38990  Biso   1.000  N 
  C27      1.0000 0.99990  0.62130  0.45060  Biso   1.000  C 
  C28      1.0000 0.96800  0.57964  0.54400  Biso   1.000  C 
  C29      1.0000 0.87090  0.57749  0.57980  Biso   1.000  C 
  C30      1.0000 0.81090  0.61765  0.51720  Biso   1.000  C 
  C31      1.0000 0.84926  0.65792  0.42340  Biso   1.000  C 
  H13      1.0000 0.80790  0.68510  0.38080  Biso   1.000  H 
  H14      1.0000 0.74460  0.61740  0.53860  Biso   1.000  H 
  C32      1.0000 0.83360  0.53412  0.67280  Biso   1.000  C 
  C33      1.0000 0.80099  0.49633  0.74700  Biso   1.000  C 
  C34      1.0000 0.76000  0.45298  0.82560  Biso   1.000  C 
  C35      1.0000 0.72170  0.41455  0.88820  Biso   1.000  C 
  C36      1.0000 0.67250  0.37033  0.96460  Biso   1.000  C 
  C37      1.0000 0.63310  0.32501  0.88840  Biso   1.000  C 
  H15      1.0000 0.64000  0.32160  0.78350  Biso   1.000  H 
  C38      1.0000 0.58360  0.28506  0.96930  Biso   1.000  C 
  H16      1.0000 0.55600  0.25440  0.91670  Biso   1.000  H 
  N7       1.0000 0.57224  0.28701  0.11690  Biso   1.000  N 
  C39      1.0000 0.61180  0.33059  0.19010  Biso   1.000  C 
  H17      1.0000 0.60510  0.33230  0.29540  Biso   1.000  H 
  C40      1.0000 0.66160  0.37287  0.11950  Biso   1.000  C 
  H18      1.0000 0.68790  0.40320  0.17490  Biso   1.000  H 
  H19      1.0000 0.01110  0.55270  0.58380  Biso   1.000  H 
  H20      1.0000 0.06600  0.62270  0.42760  Biso   1.000  H 
  N8       1.0000 0.92776  0.78701  0.38310  Biso   1.000  N 
  C41      1.0000 0.88820  0.83059  0.30990  Biso   1.000  C 
  C42      1.0000 0.83840  0.87287  0.38050  Biso   1.000  C 
  H21      1.0000 0.81210  0.90320  0.32510  Biso   1.000  H 
  C43      1.0000 0.82750  0.87033  0.53540  Biso   1.000  C 
  C44      1.0000 0.86690  0.82501  0.61160  Biso   1.000  C 
  C45      1.0000 0.91640  0.78506  0.53070  Biso   1.000  C 
  H22      1.0000 0.94400  0.75440  0.58330  Biso   1.000  H 
  H23      1.0000 0.86000  0.82160  0.71650  Biso   1.000  H 
  C46      1.0000 0.77830  0.91455  0.61180  Biso   1.000  C 
  C47      1.0000 0.74000  0.95298  0.67440  Biso   1.000  C 
  C48      1.0000 0.69901  0.99633  0.75300  Biso   1.000  C 
  C49      1.0000 0.66640  0.03412  0.82720  Biso   1.000  C 
  C50      1.0000 0.62910  0.07749  0.92020  Biso   1.000  C 
  C51      1.0000 0.68910  0.11765  0.98280  Biso   1.000  C 
  H24      1.0000 0.75540  0.11740  0.96140  Biso   1.000  H 
  C52      1.0000 0.65074  0.15792  0.07660  Biso   1.000  C 
  H25      1.0000 0.69210  0.18510  0.11920  Biso   1.000  H 
  N9       1.0000 0.55777  0.16027  0.11010  Biso   1.000  N 
  C53      1.0000 0.50010  0.12130  0.04940  Biso   1.000  C 
  H26      1.0000 0.43400  0.12270  0.07240  Biso   1.000  H 
  C54      1.0000 0.53200  0.07964  0.95600  Biso   1.000  C 
  H27      1.0000 0.48890  0.05270  0.91620  Biso   1.000  H 
  H28      1.0000 0.89490  0.83230  0.20460  Biso   1.000  H 
  O4       1.0000 0.87473  0.72092  0.12010  Biso   1.000  O 
  N10      1.0000 0.86365  0.74067  0.98780  Biso   1.000  N 
  O5       1.0000 0.85730  0.70803  0.88360  Biso   1.000  O 
  O6       1.0000 0.86145  0.79209  0.96880  Biso   1.000  O 
  C55      1.0000 0.11180  0.83059  0.19010  Biso   1.000  C 
  C56      1.0000 0.16160  0.87287  0.11950  Biso   1.000  C 
  H29      1.0000 0.18790  0.90320  0.17490  Biso   1.000  H 
  H30      1.0000 0.10510  0.83230  0.29540  Biso   1.000  H 
  H31      1.0000 0.51110  0.05270  0.58380  Biso   1.000  H 
  H32      1.0000 0.56600  0.12270  0.42760  Biso   1.000  H 
  O7       1.0000 0.37473  0.22092  0.12010  Biso   1.000  O 
  N11      1.0000 0.36365  0.24067  0.98780  Biso   1.000  N 
  O8       1.0000 0.35730  0.20803  0.88360  Biso   1.000  O 
  O9       1.0000 0.36145  0.29209  0.96880  Biso   1.000  O 
  O10      1.0000 0.62527  0.22092  0.37990  Biso   1.000  O 
  N12      1.0000 0.63635  0.24067  0.51220  Biso   1.000  N 
  O11      1.0000 0.64270  0.20803  0.61640  Biso   1.000  O 
  O12      1.0000 0.63855  0.29209  0.53120  Biso   1.000  O 
