data_image0
_cell_length_a       17.5782
_cell_length_b       28.6807
_cell_length_c       9.5889
_cell_angle_alpha    90
_cell_angle_beta     101.956
_cell_angle_gamma    90

_symmetry_space_group_name_H-M    "P 1"
_symmetry_int_tables_number       1

loop_
  _symmetry_equiv_pos_as_xyz
  'x, y, z'

loop_
  _atom_site_label
  _atom_site_occupancy
  _atom_site_fract_x
  _atom_site_fract_y
  _atom_site_fract_z
  _atom_site_thermal_displace_type
  _atom_site_B_iso_or_equiv
  _atom_site_type_symbol
  Dy1      1.0000 0.25085  0.71903  0.24474  Biso   1.000  Dy
  O1       1.0000 0.14330  0.73638  0.33450  Biso   1.000  O 
  C1       1.0000 0.12620  0.76475  0.42210  Biso   1.000  C 
  O2       1.0000 0.17210  0.77930  0.52890  Biso   1.000  O 
  Dy2      1.0000 0.25085  0.78097  0.74474  Biso   1.000  Dy
  O3       1.0000 0.25190  0.70023  0.74370  Biso   1.000  O 
  C2       1.0000 0.22480  0.66500  0.66710  Biso   1.000  C 
  H1       1.0000 0.24270  0.66570  0.57800  Biso   1.000  H 
  H2       1.0000 0.16840  0.66610  0.64530  Biso   1.000  H 
  C3       1.0000 0.25130  0.62230  0.74540  Biso   1.000  C 
  H3       1.0000 0.23300  0.62180  0.83300  Biso   1.000  H 
  H4       1.0000 0.23120  0.59580  0.68870  Biso   1.000  H 
  H5       1.0000 0.30710  0.62140  0.76600  Biso   1.000  H 
  O4       1.0000 0.35849  0.76433  0.65210  Biso   1.000  O 
  C4       1.0000 0.37530  0.73530  0.56630  Biso   1.000  C 
  O5       1.0000 0.32970  0.72081  0.45710  Biso   1.000  O 
  C5       1.0000 0.45660  0.71661  0.59400  Biso   1.000  C 
  C6       1.0000 0.51210  0.73340  0.71000  Biso   1.000  C 
  C7       1.0000 0.58590  0.71420  0.74200  Biso   1.000  C 
  H6       1.0000 0.62290  0.72640  0.81660  Biso   1.000  H 
  C8       1.0000 0.60550  0.67659  0.66320  Biso   1.000  C 
  C9       1.0000 0.68130  0.65207  0.70540  Biso   1.000  C 
  C10      1.0000 0.75105  0.67617  0.74760  Biso   1.000  C 
  H7       1.0000 0.75110  0.70860  0.74790  Biso   1.000  H 
  C11      1.0000 0.82020  0.65217  0.78910  Biso   1.000  C 
  C12      1.0000 0.89560  0.67649  0.82960  Biso   1.000  C 
  C13      1.0000 0.91490  0.71400  0.74870  Biso   1.000  C 
  H8       1.0000 0.87790  0.72610  0.67380  Biso   1.000  H 
  C14      1.0000 0.98970  0.73310  0.78090  Biso   1.000  C 
  C15      1.0000 0.04560  0.71655  0.89490  Biso   1.000  C 
  C16      1.0000 0.12620  0.73525  0.92210  Biso   1.000  C 
  O6       1.0000 0.17210  0.72070  0.02890  Biso   1.000  O 
  O7       1.0000 0.14330  0.76362  0.83450  Biso   1.000  O 
  C17      1.0000 0.02430  0.68100  0.97980  Biso   1.000  C 
  H9       1.0000 0.05990  0.67060  0.05940  Biso   1.000  H 
  C18      1.0000 0.95140  0.66135  0.94690  Biso   1.000  C 
  H10      1.0000 0.93900  0.63750  0.00390  Biso   1.000  H 
  H11      1.0000 0.00230  0.75720  0.72510  Biso   1.000  H 
  C19      1.0000 0.81940  0.60362  0.79010  Biso   1.000  C 
  H12      1.0000 0.86600  0.58760  0.81830  Biso   1.000  H 
  C20      1.0000 0.75070  0.57841  0.75010  Biso   1.000  C 
  C21      1.0000 0.68170  0.60366  0.70790  Biso   1.000  C 
  H13      1.0000 0.63490  0.58760  0.68100  Biso   1.000  H 
  C22      1.0000 0.75006  0.52649  0.74990  Biso   1.000  C 
  C23      1.0000 0.68950  0.50206  0.78950  Biso   1.000  C 
  C24      1.0000 0.68970  0.45400  0.78910  Biso   1.000  C 
  H14      1.0000 0.64870  0.43790  0.81450  Biso   1.000  H 
  C25      1.0000 0.74930  0.42950  0.75200  Biso   1.000  C 
  C26      1.0000 0.81090  0.45363  0.71500  Biso   1.000  C 
  H15      1.0000 0.85260  0.43730  0.69270  Biso   1.000  H 
  C27      1.0000 0.81040  0.50144  0.71130  Biso   1.000  C 
  H16      1.0000 0.85070  0.51730  0.68270  Biso   1.000  H 
  C28      1.0000 0.74910  0.37670  0.75300  Biso   1.000  C 
  Dy3      1.0000 0.74915  0.28097  0.75526  Biso   1.000  Dy
  O8       1.0000 0.74810  0.20023  0.75630  Biso   1.000  O 
  C29      1.0000 0.77520  0.16500  0.83290  Biso   1.000  C 
  H17      1.0000 0.83160  0.16610  0.85470  Biso   1.000  H 
  H18      1.0000 0.75730  0.16570  0.92200  Biso   1.000  H 
  C30      1.0000 0.74870  0.12230  0.75460  Biso   1.000  C 
  H19      1.0000 0.76700  0.12180  0.66700  Biso   1.000  H 
  H20      1.0000 0.69290  0.12140  0.73400  Biso   1.000  H 
  H21      1.0000 0.76880  0.09580  0.81130  Biso   1.000  H 
  O9       1.0000 0.67030  0.27919  0.54290  Biso   1.000  O 
  C31      1.0000 0.62470  0.26470  0.43370  Biso   1.000  C 
  O10      1.0000 0.64151  0.23567  0.34790  Biso   1.000  O 
  Dy4      1.0000 0.74915  0.21903  0.25526  Biso   1.000  Dy
  O11      1.0000 0.80130  0.14548  0.20980  Biso   1.000  O 
  C32      1.0000 0.74910  0.12330  0.25300  Biso   1.000  C 
  O12      1.0000 0.69720  0.14469  0.29830  Biso   1.000  O 
  C33      1.0000 0.74930  0.07050  0.25200  Biso   1.000  C 
  C34      1.0000 0.81090  0.04637  0.21500  Biso   1.000  C 
  H22      1.0000 0.85260  0.06270  0.19270  Biso   1.000  H 
  C35      1.0000 0.81040  0.99856  0.21130  Biso   1.000  C 
  H23      1.0000 0.85070  0.98270  0.18270  Biso   1.000  H 
  C36      1.0000 0.75006  0.97351  0.24990  Biso   1.000  C 
  C37      1.0000 0.68950  0.99794  0.28950  Biso   1.000  C 
  H24      1.0000 0.64890  0.98190  0.31630  Biso   1.000  H 
  C38      1.0000 0.68970  0.04600  0.28910  Biso   1.000  C 
  H25      1.0000 0.64870  0.06210  0.31450  Biso   1.000  H 
  C39      1.0000 0.75070  0.92159  0.25010  Biso   1.000  C 
  C40      1.0000 0.68170  0.89634  0.20790  Biso   1.000  C 
  H26      1.0000 0.63490  0.91240  0.18100  Biso   1.000  H 
  C41      1.0000 0.68130  0.84793  0.20540  Biso   1.000  C 
  C42      1.0000 0.75105  0.82383  0.24760  Biso   1.000  C 
  H27      1.0000 0.75110  0.79140  0.24790  Biso   1.000  H 
  C43      1.0000 0.82020  0.84783  0.28910  Biso   1.000  C 
  C44      1.0000 0.89560  0.82351  0.32960  Biso   1.000  C 
  C45      1.0000 0.95140  0.83865  0.44690  Biso   1.000  C 
  H28      1.0000 0.93900  0.86250  0.50390  Biso   1.000  H 
  C46      1.0000 0.02430  0.81900  0.47980  Biso   1.000  C 
  H29      1.0000 0.05990  0.82940  0.55940  Biso   1.000  H 
  C47      1.0000 0.04560  0.78345  0.39490  Biso   1.000  C 
  C48      1.0000 0.98970  0.76690  0.28090  Biso   1.000  C 
  C49      1.0000 0.91490  0.78600  0.24870  Biso   1.000  C 
  H30      1.0000 0.87790  0.77390  0.17380  Biso   1.000  H 
  H31      1.0000 0.00230  0.74280  0.22510  Biso   1.000  H 
  C50      1.0000 0.81940  0.89638  0.29010  Biso   1.000  C 
  H32      1.0000 0.86600  0.91240  0.31830  Biso   1.000  H 
  C51      1.0000 0.60550  0.82341  0.16320  Biso   1.000  C 
  C52      1.0000 0.58590  0.78580  0.24200  Biso   1.000  C 
  H33      1.0000 0.62290  0.77360  0.31660  Biso   1.000  H 
  C53      1.0000 0.51210  0.76660  0.21000  Biso   1.000  C 
  H34      1.0000 0.49920  0.74250  0.26570  Biso   1.000  H 
  C54      1.0000 0.45660  0.78339  0.09400  Biso   1.000  C 
  C55      1.0000 0.37530  0.76470  0.06630  Biso   1.000  C 
  O13      1.0000 0.32970  0.77919  0.95710  Biso   1.000  O 
  O14      1.0000 0.35849  0.73567  0.15210  Biso   1.000  O 
  C56      1.0000 0.47750  0.81904  0.01160  Biso   1.000  C 
  C57      1.0000 0.54960  0.83902  0.04590  Biso   1.000  C 
  H35      1.0000 0.56180  0.86340  0.99060  Biso   1.000  H 
  H36      1.0000 0.44200  0.82950  0.93200  Biso   1.000  H 
  O15      1.0000 0.85670  0.23638  0.16550  Biso   1.000  O 
  C58      1.0000 0.87380  0.26475  0.07790  Biso   1.000  C 
  O16      1.0000 0.82790  0.27930  0.97110  Biso   1.000  O 
  C59      1.0000 0.95440  0.28345  0.10510  Biso   1.000  C 
  C60      1.0000 0.97570  0.31900  0.02020  Biso   1.000  C 
  C61      1.0000 0.04860  0.33865  0.05310  Biso   1.000  C 
  C62      1.0000 0.10440  0.32351  0.17040  Biso   1.000  C 
  C63      1.0000 0.17980  0.34783  0.21090  Biso   1.000  C 
  C64      1.0000 0.24895  0.32383  0.25240  Biso   1.000  C 
  H37      1.0000 0.24890  0.29140  0.25210  Biso   1.000  H 
  C65      1.0000 0.31870  0.34793  0.29460  Biso   1.000  C 
  C66      1.0000 0.39450  0.32341  0.33680  Biso   1.000  C 
  C67      1.0000 0.41410  0.28580  0.25800  Biso   1.000  C 
  H38      1.0000 0.37710  0.27360  0.18340  Biso   1.000  H 
  C68      1.0000 0.48790  0.26660  0.29000  Biso   1.000  C 
  H39      1.0000 0.50080  0.24250  0.23430  Biso   1.000  H 
  C69      1.0000 0.54340  0.28339  0.40600  Biso   1.000  C 
  C70      1.0000 0.52250  0.31904  0.48840  Biso   1.000  C 
  C71      1.0000 0.45040  0.33902  0.45410  Biso   1.000  C 
  H40      1.0000 0.43820  0.36340  0.50940  Biso   1.000  H 
  H41      1.0000 0.55800  0.32950  0.56800  Biso   1.000  H 
  C72      1.0000 0.31830  0.39634  0.29210  Biso   1.000  C 
  H42      1.0000 0.36510  0.41240  0.31900  Biso   1.000  H 
  C73      1.0000 0.24930  0.42159  0.24990  Biso   1.000  C 
  C74      1.0000 0.18060  0.39638  0.20990  Biso   1.000  C 
  H43      1.0000 0.13400  0.41240  0.18170  Biso   1.000  H 
  C75      1.0000 0.24994  0.47351  0.25010  Biso   1.000  C 
  C76      1.0000 0.18960  0.49856  0.28870  Biso   1.000  C 
  H44      1.0000 0.14930  0.48270  0.31730  Biso   1.000  H 
  C77      1.0000 0.18910  0.54637  0.28500  Biso   1.000  C 
  H45      1.0000 0.14740  0.56270  0.30730  Biso   1.000  H 
  C78      1.0000 0.25070  0.57050  0.24800  Biso   1.000  C 
  C79      1.0000 0.31030  0.54600  0.21090  Biso   1.000  C 
  H46      1.0000 0.35130  0.56210  0.18550  Biso   1.000  H 
  C80      1.0000 0.31050  0.49794  0.21050  Biso   1.000  C 
  H47      1.0000 0.35110  0.48190  0.18370  Biso   1.000  H 
  C81      1.0000 0.25090  0.62330  0.24700  Biso   1.000  C 
  O17      1.0000 0.19870  0.64548  0.29020  Biso   1.000  O 
  O18      1.0000 0.30280  0.64469  0.20170  Biso   1.000  O 
  C82      1.0000 0.08510  0.28600  0.25130  Biso   1.000  C 
  H48      1.0000 0.12210  0.27390  0.32620  Biso   1.000  H 
  C83      1.0000 0.01030  0.26690  0.21910  Biso   1.000  C 
  H49      1.0000 0.99770  0.24280  0.27490  Biso   1.000  H 
  H50      1.0000 0.06100  0.36250  0.99610  Biso   1.000  H 
  H51      1.0000 0.94010  0.32940  0.94060  Biso   1.000  H 
  O19      1.0000 0.67030  0.22081  0.04290  Biso   1.000  O 
  C84      1.0000 0.62470  0.23530  0.93370  Biso   1.000  C 
  O20      1.0000 0.64151  0.26433  0.84790  Biso   1.000  O 
  C85      1.0000 0.54340  0.21661  0.90600  Biso   1.000  C 
  C86      1.0000 0.48790  0.23340  0.79000  Biso   1.000  C 
  C87      1.0000 0.41410  0.21420  0.75800  Biso   1.000  C 
  H52      1.0000 0.37710  0.22640  0.68340  Biso   1.000  H 
  C88      1.0000 0.39450  0.17659  0.83680  Biso   1.000  C 
  C89      1.0000 0.31870  0.15207  0.79460  Biso   1.000  C 
  C90      1.0000 0.24895  0.17617  0.75240  Biso   1.000  C 
  C91      1.0000 0.17980  0.15217  0.71090  Biso   1.000  C 
  C92      1.0000 0.10440  0.17649  0.67040  Biso   1.000  C 
  C93      1.0000 0.04860  0.16135  0.55310  Biso   1.000  C 
  H53      1.0000 0.06100  0.13750  0.49610  Biso   1.000  H 
  C94      1.0000 0.97570  0.18100  0.52020  Biso   1.000  C 
  H54      1.0000 0.94010  0.17060  0.44060  Biso   1.000  H 
  C95      1.0000 0.95440  0.21655  0.60510  Biso   1.000  C 
  C96      1.0000 0.87380  0.23525  0.57790  Biso   1.000  C 
  O21      1.0000 0.82790  0.22070  0.47110  Biso   1.000  O 
  O22      1.0000 0.85670  0.26362  0.66550  Biso   1.000  O 
  C97      1.0000 0.01030  0.23310  0.71910  Biso   1.000  C 
  C98      1.0000 0.08510  0.21400  0.75130  Biso   1.000  C 
  H55      1.0000 0.12210  0.22610  0.82620  Biso   1.000  H 
  H56      1.0000 0.99770  0.25720  0.77490  Biso   1.000  H 
  C99      1.0000 0.18060  0.10362  0.70990  Biso   1.000  C 
  H57      1.0000 0.13400  0.08760  0.68170  Biso   1.000  H 
  C100     1.0000 0.24930  0.07841  0.74990  Biso   1.000  C 
  C101     1.0000 0.31830  0.10366  0.79210  Biso   1.000  C 
  H58      1.0000 0.36510  0.08760  0.81900  Biso   1.000  H 
  C102     1.0000 0.24994  0.02649  0.75010  Biso   1.000  C 
  C103     1.0000 0.31050  0.00206  0.71050  Biso   1.000  C 
  H59      1.0000 0.35110  0.01810  0.68370  Biso   1.000  H 
  C104     1.0000 0.31030  0.95400  0.71090  Biso   1.000  C 
  H60      1.0000 0.35130  0.93790  0.68550  Biso   1.000  H 
  C105     1.0000 0.25070  0.92950  0.74800  Biso   1.000  C 
  C106     1.0000 0.18910  0.95363  0.78500  Biso   1.000  C 
  H61      1.0000 0.14740  0.93730  0.80730  Biso   1.000  H 
  C107     1.0000 0.18960  0.00144  0.78870  Biso   1.000  C 
  H62      1.0000 0.14930  0.01730  0.81730  Biso   1.000  H 
  C108     1.0000 0.25090  0.87670  0.74700  Biso   1.000  C 
  O23      1.0000 0.19870  0.85452  0.79020  Biso   1.000  O 
  O24      1.0000 0.30280  0.85531  0.70170  Biso   1.000  O 
  H63      1.0000 0.24890  0.20860  0.75210  Biso   1.000  H 
  C109     1.0000 0.45040  0.16098  0.95410  Biso   1.000  C 
  H64      1.0000 0.43820  0.13660  0.00940  Biso   1.000  H 
  C110     1.0000 0.52250  0.18096  0.98840  Biso   1.000  C 
  H65      1.0000 0.55800  0.17050  0.06800  Biso   1.000  H 
  H66      1.0000 0.50080  0.25750  0.73430  Biso   1.000  H 
  O25      1.0000 0.74810  0.29977  0.25630  Biso   1.000  O 
  C111     1.0000 0.77520  0.33500  0.33290  Biso   1.000  C 
  H67      1.0000 0.83160  0.33390  0.35470  Biso   1.000  H 
  H68      1.0000 0.75730  0.33430  0.42200  Biso   1.000  H 
  C112     1.0000 0.74870  0.37770  0.25460  Biso   1.000  C 
  H69      1.0000 0.69290  0.37860  0.23400  Biso   1.000  H 
  H70      1.0000 0.76700  0.37820  0.16700  Biso   1.000  H 
  H71      1.0000 0.76880  0.40420  0.31130  Biso   1.000  H 
  O26      1.0000 0.80130  0.35452  0.70980  Biso   1.000  O 
  O27      1.0000 0.69720  0.35531  0.79830  Biso   1.000  O 
  H72      1.0000 0.64890  0.51810  0.81630  Biso   1.000  H 
  C113     1.0000 0.54960  0.66098  0.54590  Biso   1.000  C 
  H73      1.0000 0.56180  0.63660  0.49060  Biso   1.000  H 
  C114     1.0000 0.47750  0.68096  0.51160  Biso   1.000  C 
  H74      1.0000 0.44200  0.67050  0.43200  Biso   1.000  H 
  H75      1.0000 0.49920  0.75750  0.76570  Biso   1.000  H 
  O28      1.0000 0.25190  0.79977  0.24370  Biso   1.000  O 
  C115     1.0000 0.22480  0.83500  0.16710  Biso   1.000  C 
  H76      1.0000 0.16840  0.83390  0.14530  Biso   1.000  H 
  H77      1.0000 0.24270  0.83430  0.07800  Biso   1.000  H 
  C116     1.0000 0.25130  0.87770  0.24540  Biso   1.000  C 
  H78      1.0000 0.23120  0.90420  0.18870  Biso   1.000  H 
  H79      1.0000 0.30710  0.87860  0.26600  Biso   1.000  H 
  H80      1.0000 0.23300  0.87820  0.33300  Biso   1.000  H 
