data_image0
_cell_length_a       16.5393
_cell_length_b       16.5393
_cell_length_c       21.597
_cell_angle_alpha    90
_cell_angle_beta     90
_cell_angle_gamma    120

_symmetry_space_group_name_H-M    "P 1"
_symmetry_int_tables_number       1

loop_
  _symmetry_equiv_pos_as_xyz
  'x, y, z'

loop_
  _atom_site_label
  _atom_site_occupancy
  _atom_site_fract_x
  _atom_site_fract_y
  _atom_site_fract_z
  _atom_site_thermal_displace_type
  _atom_site_B_iso_or_equiv
  _atom_site_type_symbol
  Cd1      1.0000 0.00000  0.00000  0.50000  Biso   1.000  Cd
  Cd2      1.0000 0.66667  0.33333  0.83333  Biso   1.000  Cd
  Cd3      1.0000 0.33333  0.66667  0.16667  Biso   1.000  Cd
  N1       1.0000 0.33330  0.66670  0.42160  Biso   1.000  N 
  N2       1.0000 0.99997  0.00003  0.75493  Biso   1.000  N 
  N3       1.0000 0.66663  0.33337  0.08827  Biso   1.000  N 
  N4       1.0000 0.66670  0.33330  0.57840  Biso   1.000  N 
  N5       1.0000 0.00003  0.99997  0.24507  Biso   1.000  N 
  N6       1.0000 0.33337  0.66663  0.91173  Biso   1.000  N 
  N7       1.0000 0.71990  0.91200  0.41860  Biso   1.000  N 
  N8       1.0000 0.08800  0.80790  0.41860  Biso   1.000  N 
  N9       1.0000 0.19210  0.28010  0.41860  Biso   1.000  N 
  N10      1.0000 0.38657  0.24533  0.75193  Biso   1.000  N 
  N11      1.0000 0.75467  0.14123  0.75193  Biso   1.000  N 
  N12      1.0000 0.85877  0.61343  0.75193  Biso   1.000  N 
  N13      1.0000 0.05323  0.57867  0.08527  Biso   1.000  N 
  N14      1.0000 0.42133  0.47457  0.08527  Biso   1.000  N 
  N15      1.0000 0.52543  0.94677  0.08527  Biso   1.000  N 
  N16      1.0000 0.28010  0.08800  0.58140  Biso   1.000  N 
  N17      1.0000 0.91200  0.19210  0.58140  Biso   1.000  N 
  N18      1.0000 0.80790  0.71990  0.58140  Biso   1.000  N 
  N19      1.0000 0.61343  0.75467  0.24807  Biso   1.000  N 
  N20      1.0000 0.24533  0.85877  0.24807  Biso   1.000  N 
  N21      1.0000 0.14123  0.38657  0.24807  Biso   1.000  N 
  N22      1.0000 0.94677  0.42133  0.91473  Biso   1.000  N 
  N23      1.0000 0.57867  0.52543  0.91473  Biso   1.000  N 
  N24      1.0000 0.47457  0.05323  0.91473  Biso   1.000  N 
  N25      1.0000 0.86890  0.97100  0.44120  Biso   1.000  N 
  N26      1.0000 0.02900  0.89790  0.44120  Biso   1.000  N 
  N27      1.0000 0.10210  0.13110  0.44120  Biso   1.000  N 
  N28      1.0000 0.53557  0.30433  0.77453  Biso   1.000  N 
  N29      1.0000 0.69567  0.23123  0.77453  Biso   1.000  N 
  N30      1.0000 0.76877  0.46443  0.77453  Biso   1.000  N 
  N31      1.0000 0.20223  0.63767  0.10787  Biso   1.000  N 
  N32      1.0000 0.36233  0.56457  0.10787  Biso   1.000  N 
  N33      1.0000 0.43543  0.79777  0.10787  Biso   1.000  N 
  N34      1.0000 0.13110  0.02900  0.55880  Biso   1.000  N 
  N35      1.0000 0.97100  0.10210  0.55880  Biso   1.000  N 
  N36      1.0000 0.89790  0.86890  0.55880  Biso   1.000  N 
  N37      1.0000 0.46443  0.69567  0.22547  Biso   1.000  N 
  N38      1.0000 0.30433  0.76877  0.22547  Biso   1.000  N 
  N39      1.0000 0.23123  0.53557  0.22547  Biso   1.000  N 
  N40      1.0000 0.79777  0.36233  0.89213  Biso   1.000  N 
  N41      1.0000 0.63767  0.43543  0.89213  Biso   1.000  N 
  N42      1.0000 0.56457  0.20223  0.89213  Biso   1.000  N 
  C1       1.0000 0.62240  0.84810  0.41760  Biso   1.000  C 
  C2       1.0000 0.15190  0.77430  0.41760  Biso   1.000  C 
  C3       1.0000 0.22570  0.37760  0.41760  Biso   1.000  C 
  C4       1.0000 0.28907  0.18143  0.75093  Biso   1.000  C 
  C5       1.0000 0.81857  0.10763  0.75093  Biso   1.000  C 
  C6       1.0000 0.89237  0.71093  0.75093  Biso   1.000  C 
  C7       1.0000 0.95573  0.51477  0.08427  Biso   1.000  C 
  C8       1.0000 0.48523  0.44097  0.08427  Biso   1.000  C 
  C9       1.0000 0.55903  0.04427  0.08427  Biso   1.000  C 
  C10      1.0000 0.37760  0.15190  0.58240  Biso   1.000  C 
  C11      1.0000 0.84810  0.22570  0.58240  Biso   1.000  C 
  C12      1.0000 0.77430  0.62240  0.58240  Biso   1.000  C 
  C13      1.0000 0.71093  0.81857  0.24907  Biso   1.000  C 
  C14      1.0000 0.18143  0.89237  0.24907  Biso   1.000  C 
  C15      1.0000 0.10763  0.28907  0.24907  Biso   1.000  C 
  C16      1.0000 0.04427  0.48523  0.91573  Biso   1.000  C 
  C17      1.0000 0.51477  0.55903  0.91573  Biso   1.000  C 
  C18      1.0000 0.44097  0.95573  0.91573  Biso   1.000  C 
  C19      1.0000 0.43130  0.72790  0.42040  Biso   1.000  C 
  C20      1.0000 0.27210  0.70340  0.42040  Biso   1.000  C 
  C21      1.0000 0.29660  0.56870  0.42040  Biso   1.000  C 
  C22      1.0000 0.09797  0.06123  0.75373  Biso   1.000  C 
  C23      1.0000 0.93877  0.03673  0.75373  Biso   1.000  C 
  C24      1.0000 0.96327  0.90203  0.75373  Biso   1.000  C 
  C25      1.0000 0.76463  0.39457  0.08707  Biso   1.000  C 
  C26      1.0000 0.60543  0.37007  0.08707  Biso   1.000  C 
  C27      1.0000 0.62993  0.23537  0.08707  Biso   1.000  C 
  C28      1.0000 0.56870  0.27210  0.57960  Biso   1.000  C 
  C29      1.0000 0.72790  0.29660  0.57960  Biso   1.000  C 
  C30      1.0000 0.70340  0.43130  0.57960  Biso   1.000  C 
  C31      1.0000 0.90203  0.93877  0.24627  Biso   1.000  C 
  C32      1.0000 0.06123  0.96327  0.24627  Biso   1.000  C 
  C33      1.0000 0.03673  0.09797  0.24627  Biso   1.000  C 
  C34      1.0000 0.23537  0.60543  0.91293  Biso   1.000  C 
  C35      1.0000 0.39457  0.62993  0.91293  Biso   1.000  C 
  C36      1.0000 0.37007  0.76463  0.91293  Biso   1.000  C 
  C37      1.0000 0.78660  0.89820  0.44330  Biso   1.000  C 
  C38      1.0000 0.10180  0.88840  0.44330  Biso   1.000  C 
  C39      1.0000 0.11160  0.21340  0.44330  Biso   1.000  C 
  C40      1.0000 0.45327  0.23153  0.77663  Biso   1.000  C 
  C41      1.0000 0.76847  0.22173  0.77663  Biso   1.000  C 
  C42      1.0000 0.77827  0.54673  0.77663  Biso   1.000  C 
  C43      1.0000 0.11993  0.56487  0.10997  Biso   1.000  C 
  C44      1.0000 0.43513  0.55507  0.10997  Biso   1.000  C 
  C45      1.0000 0.44493  0.88007  0.10997  Biso   1.000  C 
  C46      1.0000 0.21340  0.10180  0.55670  Biso   1.000  C 
  C47      1.0000 0.89820  0.11160  0.55670  Biso   1.000  C 
  C48      1.0000 0.88840  0.78660  0.55670  Biso   1.000  C 
  C49      1.0000 0.54673  0.76847  0.22337  Biso   1.000  C 
  C50      1.0000 0.23153  0.77827  0.22337  Biso   1.000  C 
  C51      1.0000 0.22173  0.45327  0.22337  Biso   1.000  C 
  C52      1.0000 0.88007  0.43513  0.89003  Biso   1.000  C 
  C53      1.0000 0.56487  0.44493  0.89003  Biso   1.000  C 
  C54      1.0000 0.55507  0.11993  0.89003  Biso   1.000  C 
  H1       1.0000 0.77460  0.84150  0.46020  Biso   1.000  H 
  H2       1.0000 0.15850  0.93310  0.46020  Biso   1.000  H 
  H3       1.0000 0.06690  0.22540  0.46020  Biso   1.000  H 
  H4       1.0000 0.44127  0.17483  0.79353  Biso   1.000  H 
  H5       1.0000 0.82517  0.26643  0.79353  Biso   1.000  H 
  H6       1.0000 0.73357  0.55873  0.79353  Biso   1.000  H 
  H7       1.0000 0.10793  0.50817  0.12687  Biso   1.000  H 
  H8       1.0000 0.49183  0.59977  0.12687  Biso   1.000  H 
  H9       1.0000 0.40023  0.89207  0.12687  Biso   1.000  H 
  H10      1.0000 0.22540  0.15850  0.53980  Biso   1.000  H 
  H11      1.0000 0.84150  0.06690  0.53980  Biso   1.000  H 
  H12      1.0000 0.93310  0.77460  0.53980  Biso   1.000  H 
  H13      1.0000 0.55873  0.82517  0.20647  Biso   1.000  H 
  H14      1.0000 0.17483  0.73357  0.20647  Biso   1.000  H 
  H15      1.0000 0.26643  0.44127  0.20647  Biso   1.000  H 
  H16      1.0000 0.89207  0.49183  0.87313  Biso   1.000  H 
  H17      1.0000 0.50817  0.40023  0.87313  Biso   1.000  H 
  H18      1.0000 0.59977  0.10793  0.87313  Biso   1.000  H 
  C55      1.0000 0.76410  0.00170  0.39710  Biso   1.000  C 
  C56      1.0000 0.99830  0.76240  0.39710  Biso   1.000  C 
  C57      1.0000 0.23760  0.23590  0.39710  Biso   1.000  C 
  C58      1.0000 0.43077  0.33503  0.73043  Biso   1.000  C 
  C59      1.0000 0.66497  0.09573  0.73043  Biso   1.000  C 
  C60      1.0000 0.90427  0.56923  0.73043  Biso   1.000  C 
  C61      1.0000 0.09743  0.66837  0.06377  Biso   1.000  C 
  C62      1.0000 0.33163  0.42907  0.06377  Biso   1.000  C 
  C63      1.0000 0.57093  0.90257  0.06377  Biso   1.000  C 
  C64      1.0000 0.23590  0.99830  0.60290  Biso   1.000  C 
  C65      1.0000 0.00170  0.23760  0.60290  Biso   1.000  C 
  C66      1.0000 0.76240  0.76410  0.60290  Biso   1.000  C 
  C67      1.0000 0.56923  0.66497  0.26957  Biso   1.000  C 
  C68      1.0000 0.33503  0.90427  0.26957  Biso   1.000  C 
  C69      1.0000 0.09573  0.43077  0.26957  Biso   1.000  C 
  C70      1.0000 0.90257  0.33163  0.93623  Biso   1.000  C 
  C71      1.0000 0.66837  0.57093  0.93623  Biso   1.000  C 
  C72      1.0000 0.42907  0.09743  0.93623  Biso   1.000  C 
  H19      1.0000 0.73760  0.03300  0.37750  Biso   1.000  H 
  H20      1.0000 0.96700  0.70460  0.37750  Biso   1.000  H 
  H21      1.0000 0.29540  0.26240  0.37750  Biso   1.000  H 
  H22      1.0000 0.40427  0.36633  0.71083  Biso   1.000  H 
  H23      1.0000 0.63367  0.03793  0.71083  Biso   1.000  H 
  H24      1.0000 0.96207  0.59573  0.71083  Biso   1.000  H 
  H25      1.0000 0.07093  0.69967  0.04417  Biso   1.000  H 
  H26      1.0000 0.30033  0.37127  0.04417  Biso   1.000  H 
  H27      1.0000 0.62873  0.92907  0.04417  Biso   1.000  H 
  H28      1.0000 0.26240  0.96700  0.62250  Biso   1.000  H 
  H29      1.0000 0.03300  0.29540  0.62250  Biso   1.000  H 
  H30      1.0000 0.70460  0.73760  0.62250  Biso   1.000  H 
  H31      1.0000 0.59573  0.63367  0.28917  Biso   1.000  H 
  H32      1.0000 0.36633  0.96207  0.28917  Biso   1.000  H 
  H33      1.0000 0.03793  0.40427  0.28917  Biso   1.000  H 
  H34      1.0000 0.92907  0.30033  0.95583  Biso   1.000  H 
  H35      1.0000 0.69967  0.62873  0.95583  Biso   1.000  H 
  H36      1.0000 0.37127  0.07093  0.95583  Biso   1.000  H 
  C73      1.0000 0.47010  0.80200  0.38460  Biso   1.000  C 
  C74      1.0000 0.19800  0.66810  0.38460  Biso   1.000  C 
  C75      1.0000 0.33190  0.52990  0.38460  Biso   1.000  C 
  C76      1.0000 0.13677  0.13533  0.71793  Biso   1.000  C 
  C77      1.0000 0.86467  0.00143  0.71793  Biso   1.000  C 
  C78      1.0000 0.99857  0.86323  0.71793  Biso   1.000  C 
  C79      1.0000 0.80343  0.46867  0.05127  Biso   1.000  C 
  C80      1.0000 0.53133  0.33477  0.05127  Biso   1.000  C 
  C81      1.0000 0.66523  0.19657  0.05127  Biso   1.000  C 
  C82      1.0000 0.52990  0.19800  0.61540  Biso   1.000  C 
  C83      1.0000 0.80200  0.33190  0.61540  Biso   1.000  C 
  C84      1.0000 0.66810  0.47010  0.61540  Biso   1.000  C 
  C85      1.0000 0.86323  0.86467  0.28207  Biso   1.000  C 
  C86      1.0000 0.13533  0.99857  0.28207  Biso   1.000  C 
  C87      1.0000 0.00143  0.13677  0.28207  Biso   1.000  C 
  C88      1.0000 0.19657  0.53133  0.94873  Biso   1.000  C 
  C89      1.0000 0.46867  0.66523  0.94873  Biso   1.000  C 
  C90      1.0000 0.33477  0.80343  0.94873  Biso   1.000  C 
  H37      1.0000 0.43250  0.81410  0.35870  Biso   1.000  H 
  H38      1.0000 0.18590  0.61840  0.35870  Biso   1.000  H 
  H39      1.0000 0.38160  0.56750  0.35870  Biso   1.000  H 
  H40      1.0000 0.09917  0.14743  0.69203  Biso   1.000  H 
  H41      1.0000 0.85257  0.95173  0.69203  Biso   1.000  H 
  H42      1.0000 0.04827  0.90083  0.69203  Biso   1.000  H 
  H43      1.0000 0.76583  0.48077  0.02537  Biso   1.000  H 
  H44      1.0000 0.51923  0.28507  0.02537  Biso   1.000  H 
  H45      1.0000 0.71493  0.23417  0.02537  Biso   1.000  H 
  H46      1.0000 0.56750  0.18590  0.64130  Biso   1.000  H 
  H47      1.0000 0.81410  0.38160  0.64130  Biso   1.000  H 
  H48      1.0000 0.61840  0.43250  0.64130  Biso   1.000  H 
  H49      1.0000 0.90083  0.85257  0.30797  Biso   1.000  H 
  H50      1.0000 0.14743  0.04827  0.30797  Biso   1.000  H 
  H51      1.0000 0.95173  0.09917  0.30797  Biso   1.000  H 
  H52      1.0000 0.23417  0.51923  0.97463  Biso   1.000  H 
  H53      1.0000 0.48077  0.71493  0.97463  Biso   1.000  H 
  H54      1.0000 0.28507  0.76583  0.97463  Biso   1.000  H 
  C91      1.0000 0.85460  0.03450  0.41070  Biso   1.000  C 
  C92      1.0000 0.96550  0.82010  0.41070  Biso   1.000  C 
  C93      1.0000 0.17990  0.14540  0.41070  Biso   1.000  C 
  C94      1.0000 0.52127  0.36783  0.74403  Biso   1.000  C 
  C95      1.0000 0.63217  0.15343  0.74403  Biso   1.000  C 
  C96      1.0000 0.84657  0.47873  0.74403  Biso   1.000  C 
  C97      1.0000 0.18793  0.70117  0.07737  Biso   1.000  C 
  C98      1.0000 0.29883  0.48677  0.07737  Biso   1.000  C 
  C99      1.0000 0.51323  0.81207  0.07737  Biso   1.000  C 
  C100     1.0000 0.14540  0.96550  0.58930  Biso   1.000  C 
  C101     1.0000 0.03450  0.17990  0.58930  Biso   1.000  C 
  C102     1.0000 0.82010  0.85460  0.58930  Biso   1.000  C 
  C103     1.0000 0.47873  0.63217  0.25597  Biso   1.000  C 
  C104     1.0000 0.36783  0.84657  0.25597  Biso   1.000  C 
  C105     1.0000 0.15343  0.52127  0.25597  Biso   1.000  C 
  C106     1.0000 0.81207  0.29883  0.92263  Biso   1.000  C 
  C107     1.0000 0.70117  0.51323  0.92263  Biso   1.000  C 
  C108     1.0000 0.48677  0.18793  0.92263  Biso   1.000  C 
  H55      1.0000 0.90220  0.09410  0.40040  Biso   1.000  H 
  H56      1.0000 0.90590  0.80810  0.40040  Biso   1.000  H 
  H57      1.0000 0.19190  0.09780  0.40040  Biso   1.000  H 
  H58      1.0000 0.56887  0.42743  0.73373  Biso   1.000  H 
  H59      1.0000 0.57257  0.14143  0.73373  Biso   1.000  H 
  H60      1.0000 0.85857  0.43113  0.73373  Biso   1.000  H 
  H61      1.0000 0.23553  0.76077  0.06707  Biso   1.000  H 
  H62      1.0000 0.23923  0.47477  0.06707  Biso   1.000  H 
  H63      1.0000 0.52523  0.76447  0.06707  Biso   1.000  H 
  H64      1.0000 0.09780  0.90590  0.59960  Biso   1.000  H 
  H65      1.0000 0.09410  0.19190  0.59960  Biso   1.000  H 
  H66      1.0000 0.80810  0.90220  0.59960  Biso   1.000  H 
  H67      1.0000 0.43113  0.57257  0.26627  Biso   1.000  H 
  H68      1.0000 0.42743  0.85857  0.26627  Biso   1.000  H 
  H69      1.0000 0.14143  0.56887  0.26627  Biso   1.000  H 
  H70      1.0000 0.76447  0.23923  0.93293  Biso   1.000  H 
  H71      1.0000 0.76077  0.52523  0.93293  Biso   1.000  H 
  H72      1.0000 0.47477  0.23553  0.93293  Biso   1.000  H 
  C109     1.0000 0.56530  0.86220  0.38430  Biso   1.000  C 
  C110     1.0000 0.13780  0.70310  0.38430  Biso   1.000  C 
  C111     1.0000 0.29690  0.43470  0.38430  Biso   1.000  C 
  C112     1.0000 0.23197  0.19553  0.71763  Biso   1.000  C 
  C113     1.0000 0.80447  0.03643  0.71763  Biso   1.000  C 
  C114     1.0000 0.96357  0.76803  0.71763  Biso   1.000  C 
  C115     1.0000 0.89863  0.52887  0.05097  Biso   1.000  C 
  C116     1.0000 0.47113  0.36977  0.05097  Biso   1.000  C 
  C117     1.0000 0.63023  0.10137  0.05097  Biso   1.000  C 
  C118     1.0000 0.43470  0.13780  0.61570  Biso   1.000  C 
  C119     1.0000 0.86220  0.29690  0.61570  Biso   1.000  C 
  C120     1.0000 0.70310  0.56530  0.61570  Biso   1.000  C 
  C121     1.0000 0.76803  0.80447  0.28237  Biso   1.000  C 
  C122     1.0000 0.19553  0.96357  0.28237  Biso   1.000  C 
  C123     1.0000 0.03643  0.23197  0.28237  Biso   1.000  C 
  C124     1.0000 0.10137  0.47113  0.94903  Biso   1.000  C 
  C125     1.0000 0.52887  0.63023  0.94903  Biso   1.000  C 
  C126     1.0000 0.36977  0.89863  0.94903  Biso   1.000  C 
  H73      1.0000 0.58950  0.91510  0.35930  Biso   1.000  H 
  H74      1.0000 0.08490  0.67440  0.35930  Biso   1.000  H 
  H75      1.0000 0.32560  0.41050  0.35930  Biso   1.000  H 
  H76      1.0000 0.25617  0.24843  0.69263  Biso   1.000  H 
  H77      1.0000 0.75157  0.00773  0.69263  Biso   1.000  H 
  H78      1.0000 0.99227  0.74383  0.69263  Biso   1.000  H 
  H79      1.0000 0.92283  0.58177  0.02597  Biso   1.000  H 
  H80      1.0000 0.41823  0.34107  0.02597  Biso   1.000  H 
  H81      1.0000 0.65893  0.07717  0.02597  Biso   1.000  H 
  H82      1.0000 0.41050  0.08490  0.64070  Biso   1.000  H 
  H83      1.0000 0.91510  0.32560  0.64070  Biso   1.000  H 
  H84      1.0000 0.67440  0.58950  0.64070  Biso   1.000  H 
  H85      1.0000 0.74383  0.75157  0.30737  Biso   1.000  H 
  H86      1.0000 0.24843  0.99227  0.30737  Biso   1.000  H 
  H87      1.0000 0.00773  0.25617  0.30737  Biso   1.000  H 
  H88      1.0000 0.07717  0.41823  0.97403  Biso   1.000  H 
  H89      1.0000 0.58177  0.65893  0.97403  Biso   1.000  H 
  H90      1.0000 0.34107  0.92283  0.97403  Biso   1.000  H 
  C127     1.0000 0.58350  0.77430  0.45640  Biso   1.000  C 
  C128     1.0000 0.22570  0.80920  0.45640  Biso   1.000  C 
  C129     1.0000 0.19080  0.41650  0.45640  Biso   1.000  C 
  C130     1.0000 0.25017  0.10763  0.78973  Biso   1.000  C 
  C131     1.0000 0.89237  0.14253  0.78973  Biso   1.000  C 
  C132     1.0000 0.85747  0.74983  0.78973  Biso   1.000  C 
  C133     1.0000 0.91683  0.44097  0.12307  Biso   1.000  C 
  C134     1.0000 0.55903  0.47587  0.12307  Biso   1.000  C 
  C135     1.0000 0.52413  0.08317  0.12307  Biso   1.000  C 
  C136     1.0000 0.41650  0.22570  0.54360  Biso   1.000  C 
  C137     1.0000 0.77430  0.19080  0.54360  Biso   1.000  C 
  C138     1.0000 0.80920  0.58350  0.54360  Biso   1.000  C 
  C139     1.0000 0.74983  0.89237  0.21027  Biso   1.000  C 
  C140     1.0000 0.10763  0.85747  0.21027  Biso   1.000  C 
  C141     1.0000 0.14253  0.25017  0.21027  Biso   1.000  C 
  C142     1.0000 0.08317  0.55903  0.87693  Biso   1.000  C 
  C143     1.0000 0.44097  0.52413  0.87693  Biso   1.000  C 
  C144     1.0000 0.47587  0.91683  0.87693  Biso   1.000  C 
  H91      1.0000 0.62070  0.76530  0.48470  Biso   1.000  H 
  H92      1.0000 0.23470  0.85540  0.48470  Biso   1.000  H 
  H93      1.0000 0.14460  0.37930  0.48470  Biso   1.000  H 
  H94      1.0000 0.28737  0.09863  0.81803  Biso   1.000  H 
  H95      1.0000 0.90137  0.18873  0.81803  Biso   1.000  H 
  H96      1.0000 0.81127  0.71263  0.81803  Biso   1.000  H 
  H97      1.0000 0.95403  0.43197  0.15137  Biso   1.000  H 
  H98      1.0000 0.56803  0.52207  0.15137  Biso   1.000  H 
  H99      1.0000 0.47793  0.04597  0.15137  Biso   1.000  H 
  H100     1.0000 0.37930  0.23470  0.51530  Biso   1.000  H 
  H101     1.0000 0.76530  0.14460  0.51530  Biso   1.000  H 
  H102     1.0000 0.85540  0.62070  0.51530  Biso   1.000  H 
  H103     1.0000 0.71263  0.90137  0.18197  Biso   1.000  H 
  H104     1.0000 0.09863  0.81127  0.18197  Biso   1.000  H 
  H105     1.0000 0.18873  0.28737  0.18197  Biso   1.000  H 
  H106     1.0000 0.04597  0.56803  0.84863  Biso   1.000  H 
  H107     1.0000 0.43197  0.47793  0.84863  Biso   1.000  H 
  H108     1.0000 0.52207  0.95403  0.84863  Biso   1.000  H 
  C145     1.0000 0.48840  0.71180  0.45440  Biso   1.000  C 
  C146     1.0000 0.28820  0.77660  0.45440  Biso   1.000  C 
  C147     1.0000 0.22340  0.51160  0.45440  Biso   1.000  C 
  C148     1.0000 0.15507  0.04513  0.78773  Biso   1.000  C 
  C149     1.0000 0.95487  0.10993  0.78773  Biso   1.000  C 
  C150     1.0000 0.89007  0.84493  0.78773  Biso   1.000  C 
  C151     1.0000 0.82173  0.37847  0.12107  Biso   1.000  C 
  C152     1.0000 0.62153  0.44327  0.12107  Biso   1.000  C 
  C153     1.0000 0.55673  0.17827  0.12107  Biso   1.000  C 
  C154     1.0000 0.51160  0.28820  0.54560  Biso   1.000  C 
  C155     1.0000 0.71180  0.22340  0.54560  Biso   1.000  C 
  C156     1.0000 0.77660  0.48840  0.54560  Biso   1.000  C 
  C157     1.0000 0.84493  0.95487  0.21227  Biso   1.000  C 
  C158     1.0000 0.04513  0.89007  0.21227  Biso   1.000  C 
  C159     1.0000 0.10993  0.15507  0.21227  Biso   1.000  C 
  C160     1.0000 0.17827  0.62153  0.87893  Biso   1.000  C 
  C161     1.0000 0.37847  0.55673  0.87893  Biso   1.000  C 
  C162     1.0000 0.44327  0.82173  0.87893  Biso   1.000  C 
  H109     1.0000 0.46390  0.65720  0.47750  Biso   1.000  H 
  H110     1.0000 0.34280  0.80670  0.47750  Biso   1.000  H 
  H111     1.0000 0.19330  0.53610  0.47750  Biso   1.000  H 
  H112     1.0000 0.13057  0.99053  0.81083  Biso   1.000  H 
  H113     1.0000 0.00947  0.14003  0.81083  Biso   1.000  H 
  H114     1.0000 0.85997  0.86943  0.81083  Biso   1.000  H 
  H115     1.0000 0.79723  0.32387  0.14417  Biso   1.000  H 
  H116     1.0000 0.67613  0.47337  0.14417  Biso   1.000  H 
  H117     1.0000 0.52663  0.20277  0.14417  Biso   1.000  H 
  H118     1.0000 0.53610  0.34280  0.52250  Biso   1.000  H 
  H119     1.0000 0.65720  0.19330  0.52250  Biso   1.000  H 
  H120     1.0000 0.80670  0.46390  0.52250  Biso   1.000  H 
  H121     1.0000 0.86943  0.00947  0.18917  Biso   1.000  H 
  H122     1.0000 0.99053  0.85997  0.18917  Biso   1.000  H 
  H123     1.0000 0.14003  0.13057  0.18917  Biso   1.000  H 
  H124     1.0000 0.20277  0.67613  0.85583  Biso   1.000  H 
  H125     1.0000 0.32387  0.52663  0.85583  Biso   1.000  H 
  H126     1.0000 0.47337  0.79723  0.85583  Biso   1.000  H 
