data_image0
_cell_length_a       12.441
_cell_length_b       14.479
_cell_length_c       10.353
_cell_angle_alpha    99.3
_cell_angle_beta     97.5
_cell_angle_gamma    111.94

_symmetry_space_group_name_H-M    "P 1"
_symmetry_int_tables_number       1

loop_
  _symmetry_equiv_pos_as_xyz
  'x, y, z'

loop_
  _atom_site_label
  _atom_site_occupancy
  _atom_site_fract_x
  _atom_site_fract_y
  _atom_site_fract_z
  _atom_site_thermal_displace_type
  _atom_site_B_iso_or_equiv
  _atom_site_type_symbol
  Mo1      1.0000 0.48723  0.44064  0.04995  Biso   1.000  Mo
  O1       1.0000 0.37170  0.48310  0.15420  Biso   1.000  O 
  C1       1.0000 0.35130  0.56070  0.13010  Biso   1.000  C 
  C2       1.0000 0.27470  0.59480  0.20450  Biso   1.000  C 
  C3       1.0000 0.22200  0.54530  0.29900  Biso   1.000  C 
  O2       1.0000 0.23560  0.46190  0.32820  Biso   1.000  O 
  H1       1.0000 0.20527  0.40585  0.24624  Biso   1.000  H 
  C4       1.0000 0.15390  0.58280  0.36920  Biso   1.000  C 
  H2       1.0000 0.11460  0.54544  0.44493  Biso   1.000  H 
  C5       1.0000 0.13570  0.66530  0.34470  Biso   1.000  C 
  H3       1.0000 0.08083  0.69301  0.39989  Biso   1.000  H 
  C6       1.0000 0.18580  0.71470  0.25070  Biso   1.000  C 
  H4       1.0000 0.16992  0.78063  0.23091  Biso   1.000  H 
  C7       1.0000 0.25560  0.68040  0.18240  Biso   1.000  C 
  H5       1.0000 0.29683  0.72052  0.10973  Biso   1.000  H 
  O3       1.0000 0.39920  0.60830  0.04630  Biso   1.000  O 
  Mo2      1.0000 0.51277  0.55936  0.95005  Biso   1.000  Mo
  O4       1.0000 0.36890  0.46880  0.79080  Biso   1.000  O 
  C8       1.0000 0.30900  0.37630  0.79580  Biso   1.000  C 
  C9       1.0000 0.20660  0.30970  0.68910  Biso   1.000  C 
  C10      1.0000 0.13830  0.20930  0.69330  Biso   1.000  C 
  O5       1.0000 0.16310  0.16830  0.79860  Biso   1.000  O 
  Mo3      1.0000 0.04071  0.03581  0.92865  Biso   1.000  Mo
  Mo4      1.0000 0.95929  0.96419  0.07135  Biso   1.000  Mo
  O6       1.0000 0.83690  0.83170  0.20140  Biso   1.000  O 
  C11      1.0000 0.86170  0.79070  0.30670  Biso   1.000  C 
  C12      1.0000 0.79340  0.69030  0.31090  Biso   1.000  C 
  C13      1.0000 0.82090  0.65670  0.42560  Biso   1.000  C 
  H6       1.0000 0.76811  0.57892  0.43189  Biso   1.000  H 
  C14      1.0000 0.91220  0.71910  0.52950  Biso   1.000  C 
  H7       1.0000 0.93160  0.69153  0.61782  Biso   1.000  H 
  C15      1.0000 0.98040  0.81860  0.52130  Biso   1.000  C 
  C16      1.0000 0.95560  0.85380  0.41030  Biso   1.000  C 
  H8       1.0000 0.00984  0.93123  0.40405  Biso   1.000  H 
  H9       1.0000 0.05379  0.86872  0.60342  Biso   1.000  H 
  C17      1.0000 0.69100  0.62370  0.20420  Biso   1.000  C 
  O7       1.0000 0.66190  0.65910  0.10450  Biso   1.000  O 
  O8       1.0000 0.63110  0.53120  0.20920  Biso   1.000  O 
  O9       1.0000 0.89710  0.07790  0.12850  Biso   1.000  O 
  C18      1.0000 0.92760  0.15380  0.07380  Biso   1.000  C 
  C19      1.0000 0.89600  0.24010  0.11750  Biso   1.000  C 
  C20      1.0000 0.80950  0.22850  0.19470  Biso   1.000  C 
  C21      1.0000 0.77900  0.30790  0.23750  Biso   1.000  C 
  H10      1.0000 0.71163  0.29794  0.29764  Biso   1.000  H 
  C22      1.0000 0.83290  0.40000  0.20500  Biso   1.000  C 
  H11      1.0000 0.80710  0.46251  0.23821  Biso   1.000  H 
  C23      1.0000 0.91860  0.41400  0.13140  Biso   1.000  C 
  C24      1.0000 0.95140  0.33420  0.08610  Biso   1.000  C 
  O10      1.0000 0.03770  0.35440  0.01270  Biso   1.000  O 
  H12      1.0000 0.10620  0.34424  0.05881  Biso   1.000  H 
  H13      1.0000 0.96180  0.48802  0.10777  Biso   1.000  H 
  H14      1.0000 0.76609  0.15554  0.22091  Biso   1.000  H 
  O11      1.0000 0.98660  0.15620  0.97950  Biso   1.000  O 
  O12      1.0000 0.01340  0.84380  0.02050  Biso   1.000  O 
  C25      1.0000 0.07240  0.84620  0.92620  Biso   1.000  C 
  C26      1.0000 0.10400  0.75990  0.88250  Biso   1.000  C 
  C27      1.0000 0.04860  0.66580  0.91390  Biso   1.000  C 
  O13      1.0000 0.96230  0.64560  0.98730  Biso   1.000  O 
  H15      1.0000 0.89380  0.65576  0.94119  Biso   1.000  H 
  C28      1.0000 0.08140  0.58600  0.86860  Biso   1.000  C 
  H16      1.0000 0.03820  0.51198  0.89223  Biso   1.000  H 
  C29      1.0000 0.16710  0.60000  0.79500  Biso   1.000  C 
  H17      1.0000 0.19290  0.53749  0.76179  Biso   1.000  H 
  C30      1.0000 0.22100  0.69210  0.76250  Biso   1.000  C 
  H18      1.0000 0.28837  0.70206  0.70236  Biso   1.000  H 
  C31      1.0000 0.19050  0.77150  0.80530  Biso   1.000  C 
  H19      1.0000 0.23390  0.84446  0.77909  Biso   1.000  H 
  O14      1.0000 0.10290  0.92210  0.87150  Biso   1.000  O 
  O15      1.0000 0.11010  0.04840  0.22570  Biso   1.000  O 
  C32      1.0000 0.19770  0.11650  0.19670  Biso   1.000  C 
  C33      1.0000 0.29920  0.18770  0.30160  Biso   1.000  C 
  C34      1.0000 0.30380  0.17790  0.43460  Biso   1.000  C 
  H20      1.0000 0.23228  0.11636  0.45877  Biso   1.000  H 
  C35      1.0000 0.39620  0.24410  0.53350  Biso   1.000  C 
  C36      1.0000 0.48500  0.32480  0.50510  Biso   1.000  C 
  C37      1.0000 0.48260  0.33540  0.37470  Biso   1.000  C 
  C38      1.0000 0.39200  0.26680  0.27340  Biso   1.000  C 
  O16      1.0000 0.39660  0.27990  0.14630  Biso   1.000  O 
  H21      1.0000 0.55320  0.39871  0.35229  Biso   1.000  H 
  H22      1.0000 0.55684  0.38003  0.58535  Biso   1.000  H 
  H23      1.0000 0.40028  0.23351  0.63553  Biso   1.000  H 
  O17      1.0000 0.19720  0.12600  0.07420  Biso   1.000  O 
  O18      1.0000 0.80280  0.87400  0.92580  Biso   1.000  O 
  C39      1.0000 0.80230  0.88350  0.80330  Biso   1.000  C 
  C40      1.0000 0.70080  0.81230  0.69840  Biso   1.000  C 
  C41      1.0000 0.60800  0.73320  0.72660  Biso   1.000  C 
  O19      1.0000 0.60340  0.72010  0.85370  Biso   1.000  O 
  C42      1.0000 0.51740  0.66460  0.62530  Biso   1.000  C 
  H24      1.0000 0.44680  0.60129  0.64771  Biso   1.000  H 
  C43      1.0000 0.51500  0.67520  0.49490  Biso   1.000  C 
  H25      1.0000 0.44316  0.61997  0.41464  Biso   1.000  H 
  C44      1.0000 0.60380  0.75590  0.46650  Biso   1.000  C 
  H26      1.0000 0.59972  0.76649  0.36447  Biso   1.000  H 
  C45      1.0000 0.69620  0.82210  0.56540  Biso   1.000  C 
  H27      1.0000 0.76772  0.88364  0.54123  Biso   1.000  H 
  O20      1.0000 0.88990  0.95160  0.77430  Biso   1.000  O 
  C46      1.0000 0.04440  0.14620  0.58970  Biso   1.000  C 
  C47      1.0000 0.01960  0.18140  0.47870  Biso   1.000  C 
  C48      1.0000 0.08780  0.28090  0.47050  Biso   1.000  C 
  H28      1.0000 0.06840  0.30847  0.38218  Biso   1.000  H 
  C49      1.0000 0.17910  0.34330  0.57440  Biso   1.000  C 
  H29      1.0000 0.23189  0.42108  0.56811  Biso   1.000  H 
  H30      1.0000 0.94621  0.13128  0.39658  Biso   1.000  H 
  H31      1.0000 0.99016  0.06877  0.59595  Biso   1.000  H 
  O21      1.0000 0.33810  0.34090  0.89550  Biso   1.000  O 
  O22      1.0000 0.62830  0.51690  0.84580  Biso   1.000  O 
  C50      1.0000 0.64870  0.43930  0.86990  Biso   1.000  C 
  C51      1.0000 0.72530  0.40520  0.79550  Biso   1.000  C 
  C52      1.0000 0.74440  0.31960  0.81760  Biso   1.000  C 
  H32      1.0000 0.70317  0.27948  0.89027  Biso   1.000  H 
  C53      1.0000 0.81420  0.28530  0.74930  Biso   1.000  C 
  H33      1.0000 0.83008  0.21936  0.76909  Biso   1.000  H 
  C54      1.0000 0.86430  0.33470  0.65530  Biso   1.000  C 
  H34      1.0000 0.91917  0.30699  0.60011  Biso   1.000  H 
  C55      1.0000 0.84610  0.41720  0.63080  Biso   1.000  C 
  H35      1.0000 0.88540  0.45456  0.55507  Biso   1.000  H 
  C56      1.0000 0.77800  0.45470  0.70100  Biso   1.000  C 
  O23      1.0000 0.76440  0.53810  0.67180  Biso   1.000  O 
  H36      1.0000 0.79473  0.59415  0.75376  Biso   1.000  H 
  O24      1.0000 0.60080  0.39170  0.95370  Biso   1.000  O 
