data_image0
_cell_length_a       17.5151
_cell_length_b       13.7564
_cell_length_c       10.8123
_cell_angle_alpha    90
_cell_angle_beta     105.532
_cell_angle_gamma    90

_symmetry_space_group_name_H-M    "P 1"
_symmetry_int_tables_number       1

loop_
  _symmetry_equiv_pos_as_xyz
  'x, y, z'

loop_
  _atom_site_label
  _atom_site_occupancy
  _atom_site_fract_x
  _atom_site_fract_y
  _atom_site_fract_z
  _atom_site_thermal_displace_type
  _atom_site_B_iso_or_equiv
  _atom_site_type_symbol
  Co1      1.0000 0.00000  0.90413  0.25000  Biso   1.000  Co
  O1       1.0000 0.91770  0.79340  0.22840  Biso   1.000  O 
  C1       1.0000 0.85820  0.79090  0.27110  Biso   1.000  C 
  C2       1.0000 0.79950  0.71080  0.21950  Biso   1.000  C 
  C3       1.0000 0.74550  0.67900  0.28630  Biso   1.000  C 
  C4       1.0000 0.69180  0.60770  0.23200  Biso   1.000  C 
  C5       1.0000 0.63240  0.56920  0.29730  Biso   1.000  C 
  O2       1.0000 0.58090  0.51270  0.23170  Biso   1.000  O 
  Co2      1.0000 0.50000  0.40413  0.25000  Biso   1.000  Co
  O3       1.0000 0.41910  0.51270  0.26830  Biso   1.000  O 
  C6       1.0000 0.36760  0.56920  0.20270  Biso   1.000  C 
  O4       1.0000 0.36230  0.59160  0.08920  Biso   1.000  O 
  Co3      1.0000 0.40948  0.53040  0.95072  Biso   1.000  Co
  N1       1.0000 0.31220  0.43230  0.88380  Biso   1.000  N 
  C7       1.0000 0.25950  0.40410  0.94440  Biso   1.000  C 
  C8       1.0000 0.20290  0.33280  0.89580  Biso   1.000  C 
  C9       1.0000 0.20050  0.28920  0.78050  Biso   1.000  C 
  C10      1.0000 0.14180  0.20910  0.72890  Biso   1.000  C 
  O5       1.0000 0.08230  0.20660  0.77160  Biso   1.000  O 
  Co4      1.0000 0.00000  0.09587  0.75000  Biso   1.000  Co
  O6       1.0000 0.97890  0.08420  0.55140  Biso   1.000  O 
  Co5      1.0000 0.90948  0.96960  0.45072  Biso   1.000  Co
  O7       1.0000 0.84230  0.84790  0.34940  Biso   1.000  O 
  O8       1.0000 0.86230  0.90840  0.58920  Biso   1.000  O 
  C11      1.0000 0.86760  0.93080  0.70270  Biso   1.000  C 
  O9       1.0000 0.91910  0.98730  0.76830  Biso   1.000  O 
  Co6      1.0000 0.90948  0.03040  0.95072  Biso   1.000  Co
  O10      1.0000 0.84230  0.15210  0.84940  Biso   1.000  O 
  C12      1.0000 0.85820  0.20910  0.77110  Biso   1.000  C 
  O11      1.0000 0.91770  0.20660  0.72840  Biso   1.000  O 
  C13      1.0000 0.79950  0.28920  0.71950  Biso   1.000  C 
  C14      1.0000 0.74550  0.32100  0.78630  Biso   1.000  C 
  C15      1.0000 0.69180  0.39230  0.73200  Biso   1.000  C 
  C16      1.0000 0.63240  0.43080  0.79730  Biso   1.000  C 
  O12      1.0000 0.58090  0.48730  0.73170  Biso   1.000  O 
  Co7      1.0000 0.50000  0.59587  0.75000  Biso   1.000  Co
  O13      1.0000 0.41910  0.48730  0.76830  Biso   1.000  O 
  C17      1.0000 0.36760  0.43080  0.70270  Biso   1.000  C 
  O14      1.0000 0.36230  0.40840  0.58920  Biso   1.000  O 
  Co8      1.0000 0.40948  0.46960  0.45072  Biso   1.000  Co
  O15      1.0000 0.34230  0.34790  0.34940  Biso   1.000  O 
  C18      1.0000 0.35820  0.29090  0.27110  Biso   1.000  C 
  O16      1.0000 0.41770  0.29340  0.22840  Biso   1.000  O 
  C19      1.0000 0.29950  0.21080  0.21950  Biso   1.000  C 
  C20      1.0000 0.24550  0.17900  0.28630  Biso   1.000  C 
  C21      1.0000 0.19180  0.10770  0.23200  Biso   1.000  C 
  C22      1.0000 0.13240  0.06920  0.29730  Biso   1.000  C 
  O17      1.0000 0.08090  0.01270  0.23170  Biso   1.000  O 
  Co9      1.0000 0.09052  0.96960  0.04928  Biso   1.000  Co
  O18      1.0000 0.15770  0.84790  0.15060  Biso   1.000  O 
  C23      1.0000 0.14180  0.79090  0.22890  Biso   1.000  C 
  O19      1.0000 0.08230  0.79340  0.27160  Biso   1.000  O 
  C24      1.0000 0.20050  0.71080  0.28050  Biso   1.000  C 
  C25      1.0000 0.25450  0.67900  0.21370  Biso   1.000  C 
  H1       1.0000 0.25390  0.70550  0.13440  Biso   1.000  H 
  C26      1.0000 0.30820  0.60770  0.26800  Biso   1.000  C 
  N2       1.0000 0.31220  0.56770  0.38380  Biso   1.000  N 
  C27      1.0000 0.25950  0.59590  0.44440  Biso   1.000  C 
  H2       1.0000 0.26020  0.56690  0.52250  Biso   1.000  H 
  C28      1.0000 0.20290  0.66720  0.39580  Biso   1.000  C 
  H3       1.0000 0.16690  0.68530  0.44110  Biso   1.000  H 
  O20      1.0000 0.97890  0.91580  0.05140  Biso   1.000  O 
  O21      1.0000 0.02110  0.08420  0.94860  Biso   1.000  O 
  O22      1.0000 0.13770  0.90840  0.91080  Biso   1.000  O 
  C29      1.0000 0.13240  0.93080  0.79730  Biso   1.000  C 
  O23      1.0000 0.08090  0.98730  0.73170  Biso   1.000  O 
  Co10     1.0000 0.09052  0.03040  0.54928  Biso   1.000  Co
  O24      1.0000 0.13770  0.09160  0.41080  Biso   1.000  O 
  O25      1.0000 0.15770  0.15210  0.65060  Biso   1.000  O 
  O26      1.0000 0.02110  0.91580  0.44860  Biso   1.000  O 
  N3       1.0000 0.18780  0.93230  0.61620  Biso   1.000  N 
  C30      1.0000 0.24050  0.90410  0.55560  Biso   1.000  C 
  H4       1.0000 0.23980  0.93310  0.47750  Biso   1.000  H 
  C31      1.0000 0.29710  0.83280  0.60420  Biso   1.000  C 
  C32      1.0000 0.29950  0.78920  0.71950  Biso   1.000  C 
  C33      1.0000 0.24550  0.82100  0.78630  Biso   1.000  C 
  C34      1.0000 0.19180  0.89230  0.73200  Biso   1.000  C 
  H5       1.0000 0.24610  0.79450  0.86560  Biso   1.000  H 
  C35      1.0000 0.35820  0.70910  0.77110  Biso   1.000  C 
  O27      1.0000 0.41770  0.70660  0.72840  Biso   1.000  O 
  O28      1.0000 0.34230  0.65210  0.84940  Biso   1.000  O 
  H6       1.0000 0.33310  0.81470  0.55890  Biso   1.000  H 
  N4       1.0000 0.18780  0.06770  0.11620  Biso   1.000  N 
  C36      1.0000 0.24050  0.09590  0.05560  Biso   1.000  C 
  H7       1.0000 0.23980  0.06690  0.97750  Biso   1.000  H 
  C37      1.0000 0.29710  0.16720  0.10420  Biso   1.000  C 
  H8       1.0000 0.33310  0.18530  0.05890  Biso   1.000  H 
  H9       1.0000 0.24610  0.20550  0.36560  Biso   1.000  H 
  O29      1.0000 0.47890  0.58420  0.55140  Biso   1.000  O 
  Co11     1.0000 0.59052  0.53040  0.54928  Biso   1.000  Co
  O30      1.0000 0.52110  0.41580  0.44860  Biso   1.000  O 
  N5       1.0000 0.68780  0.43230  0.61620  Biso   1.000  N 
  C38      1.0000 0.74050  0.40410  0.55560  Biso   1.000  C 
  H10      1.0000 0.73980  0.43310  0.47750  Biso   1.000  H 
  C39      1.0000 0.79710  0.33280  0.60420  Biso   1.000  C 
  H11      1.0000 0.83310  0.31470  0.55890  Biso   1.000  H 
  O31      1.0000 0.63770  0.59160  0.41080  Biso   1.000  O 
  O32      1.0000 0.65770  0.65210  0.65060  Biso   1.000  O 
  C40      1.0000 0.64180  0.70910  0.72890  Biso   1.000  C 
  O33      1.0000 0.58230  0.70660  0.77160  Biso   1.000  O 
  C41      1.0000 0.70050  0.78920  0.78050  Biso   1.000  C 
  C42      1.0000 0.75450  0.82100  0.71370  Biso   1.000  C 
  H12      1.0000 0.75390  0.79450  0.63440  Biso   1.000  H 
  C43      1.0000 0.80820  0.89230  0.76800  Biso   1.000  C 
  N6       1.0000 0.81220  0.93230  0.88380  Biso   1.000  N 
  C44      1.0000 0.75950  0.90410  0.94440  Biso   1.000  C 
  C45      1.0000 0.70290  0.83280  0.89580  Biso   1.000  C 
  H13      1.0000 0.66690  0.81470  0.94110  Biso   1.000  H 
  H14      1.0000 0.76020  0.93310  0.02250  Biso   1.000  H 
  C46      1.0000 0.30820  0.39230  0.76800  Biso   1.000  C 
  C47      1.0000 0.25450  0.32100  0.71370  Biso   1.000  C 
  H15      1.0000 0.25390  0.29450  0.63440  Biso   1.000  H 
  O34      1.0000 0.52110  0.58420  0.94860  Biso   1.000  O 
  Co12     1.0000 0.59052  0.46960  0.04928  Biso   1.000  Co
  O35      1.0000 0.65770  0.34790  0.15060  Biso   1.000  O 
  C48      1.0000 0.64180  0.29090  0.22890  Biso   1.000  C 
  O36      1.0000 0.58230  0.29340  0.27160  Biso   1.000  O 
  C49      1.0000 0.70050  0.21080  0.28050  Biso   1.000  C 
  C50      1.0000 0.75450  0.17900  0.21370  Biso   1.000  C 
  H16      1.0000 0.75390  0.20550  0.13440  Biso   1.000  H 
  C51      1.0000 0.80820  0.10770  0.26800  Biso   1.000  C 
  C52      1.0000 0.86760  0.06920  0.20270  Biso   1.000  C 
  O37      1.0000 0.91910  0.01270  0.26830  Biso   1.000  O 
  O38      1.0000 0.86230  0.09160  0.08920  Biso   1.000  O 
  N7       1.0000 0.81220  0.06770  0.38380  Biso   1.000  N 
  C53      1.0000 0.75950  0.09590  0.44440  Biso   1.000  C 
  H17      1.0000 0.76020  0.06690  0.52250  Biso   1.000  H 
  C54      1.0000 0.70290  0.16720  0.39580  Biso   1.000  C 
  H18      1.0000 0.66690  0.18530  0.44110  Biso   1.000  H 
  O39      1.0000 0.47890  0.41580  0.05140  Biso   1.000  O 
  N8       1.0000 0.68780  0.56770  0.11620  Biso   1.000  N 
  C55      1.0000 0.74050  0.59590  0.05560  Biso   1.000  C 
  H19      1.0000 0.73980  0.56690  0.97750  Biso   1.000  H 
  C56      1.0000 0.79710  0.66720  0.10420  Biso   1.000  C 
  H20      1.0000 0.83310  0.68530  0.05890  Biso   1.000  H 
  O40      1.0000 0.63770  0.40840  0.91080  Biso   1.000  O 
  H21      1.0000 0.74610  0.29450  0.86560  Biso   1.000  H 
  H22      1.0000 0.16690  0.31470  0.94110  Biso   1.000  H 
  H23      1.0000 0.26020  0.43310  0.02250  Biso   1.000  H 
  H24      1.0000 0.74610  0.70550  0.36560  Biso   1.000  H 
