data_image0
_cell_length_a       14.0833
_cell_length_b       14.0833
_cell_length_c       10.0253
_cell_angle_alpha    90
_cell_angle_beta     90
_cell_angle_gamma    120

_symmetry_space_group_name_H-M    "P 1"
_symmetry_int_tables_number       1

loop_
  _symmetry_equiv_pos_as_xyz
  'x, y, z'

loop_
  _atom_site_label
  _atom_site_occupancy
  _atom_site_fract_x
  _atom_site_fract_y
  _atom_site_fract_z
  _atom_site_thermal_displace_type
  _atom_site_B_iso_or_equiv
  _atom_site_type_symbol
  Mn1      1.0000 0.66667  0.33333  0.00000  Biso   1.000  Mn
  O1       1.0000 0.63780  0.44600  0.88240  Biso   1.000  O 
  C1       1.0000 0.57400  0.47370  0.93220  Biso   1.000  C 
  C2       1.0000 0.54890  0.54890  0.86960  Biso   1.000  C 
  Cl1      1.0000 0.60330  0.60330  0.71770  Biso   1.000  Cl
  C3       1.0000 0.47370  0.57400  0.93220  Biso   1.000  C 
  O2       1.0000 0.44600  0.63780  0.88240  Biso   1.000  O 
  Mn2      1.0000 0.33333  0.66667  0.00000  Biso   1.000  Mn
  O3       1.0000 0.19180  0.55400  0.88240  Biso   1.000  O 
  C4       1.0000 0.10030  0.52630  0.93220  Biso   1.000  C 
  C5       1.0000 0.00000  0.45110  0.86960  Biso   1.000  C 
  Cl2      1.0000 0.00000  0.39670  0.71770  Biso   1.000  Cl
  C6       1.0000 0.89970  0.42600  0.93220  Biso   1.000  C 
  O4       1.0000 0.80820  0.36220  0.88240  Biso   1.000  O 
  C7       1.0000 0.89970  0.47370  0.06780  Biso   1.000  C 
  C8       1.0000 0.00000  0.54890  0.13040  Biso   1.000  C 
  Cl3      1.0000 0.00000  0.60330  0.28230  Biso   1.000  Cl
  C9       1.0000 0.10030  0.57400  0.06780  Biso   1.000  C 
  O5       1.0000 0.19180  0.63780  0.11760  Biso   1.000  O 
  O6       1.0000 0.80820  0.44600  0.11760  Biso   1.000  O 
  O7       1.0000 0.36220  0.80820  0.88240  Biso   1.000  O 
  C10      1.0000 0.42600  0.89970  0.93220  Biso   1.000  C 
  C11      1.0000 0.47370  0.89970  0.06780  Biso   1.000  C 
  O8       1.0000 0.44600  0.80820  0.11760  Biso   1.000  O 
  C12      1.0000 0.54890  0.00000  0.13040  Biso   1.000  C 
  Cl4      1.0000 0.60330  0.00000  0.28230  Biso   1.000  Cl
  C13      1.0000 0.57400  0.10030  0.06780  Biso   1.000  C 
  C14      1.0000 0.52630  0.10030  0.93220  Biso   1.000  C 
  C15      1.0000 0.45110  0.00000  0.86960  Biso   1.000  C 
  Cl5      1.0000 0.39670  0.00000  0.71770  Biso   1.000  Cl
  O9       1.0000 0.55400  0.19180  0.88240  Biso   1.000  O 
  O10      1.0000 0.63780  0.19180  0.11760  Biso   1.000  O 
  O11      1.0000 0.36220  0.55400  0.11760  Biso   1.000  O 
  C16      1.0000 0.42600  0.52630  0.06780  Biso   1.000  C 
  C17      1.0000 0.45110  0.45110  0.13040  Biso   1.000  C 
  Cl6      1.0000 0.39670  0.39670  0.28230  Biso   1.000  Cl
  C18      1.0000 0.52630  0.42600  0.06780  Biso   1.000  C 
  O12      1.0000 0.55400  0.36220  0.11760  Biso   1.000  O 
