data_image0
_cell_length_a       10.0147
_cell_length_b       11.2143
_cell_length_c       16.1954
_cell_angle_alpha    75.1093
_cell_angle_beta     81.2134
_cell_angle_gamma    86.865

_symmetry_space_group_name_H-M    "P 1"
_symmetry_int_tables_number       1

loop_
  _symmetry_equiv_pos_as_xyz
  'x, y, z'

loop_
  _atom_site_label
  _atom_site_occupancy
  _atom_site_fract_x
  _atom_site_fract_y
  _atom_site_fract_z
  _atom_site_thermal_displace_type
  _atom_site_B_iso_or_equiv
  _atom_site_type_symbol
  Ru1      1.0000 0.46347  0.77370  0.28301  Biso   1.000  Ru
  O1       1.0000 0.39480  0.81710  0.16407  Biso   1.000  O 
  C1       1.0000 0.37900  0.92880  0.12930  Biso   1.000  C 
  C2       1.0000 0.31290  0.95990  0.04630  Biso   1.000  C 
  F1       1.0000 0.36430  0.06210  0.98974  Biso   1.000  F 
  F2       1.0000 0.18220  0.97830  0.06628  Biso   1.000  F 
  F3       1.0000 0.33150  0.86930  0.00634  Biso   1.000  F 
  O2       1.0000 0.40500  0.02000  0.15556  Biso   1.000  O 
  Ru2      1.0000 0.47553  0.98029  0.27421  Biso   1.000  Ru
  O3       1.0000 0.27580  0.97900  0.33304  Biso   1.000  O 
  C3       1.0000 0.21800  0.87850  0.35240  Biso   1.000  C 
  C4       1.0000 0.07030  0.87810  0.39610  Biso   1.000  C 
  F4       1.0000 0.00530  0.78200  0.39310  Biso   1.000  F 
  F5       1.0000 0.06550  0.87740  0.47691  Biso   1.000  F 
  F6       1.0000 0.00330  0.97680  0.36050  Biso   1.000  F 
  O4       1.0000 0.26510  0.77610  0.34194  Biso   1.000  O 
  O5       1.0000 0.67360  0.97870  0.21607  Biso   1.000  O 
  C5       1.0000 0.72160  0.87670  0.20500  Biso   1.000  C 
  C6       1.0000 0.87120  0.87800  0.16670  Biso   1.000  C 
  F7       1.0000 0.89110  0.93160  0.08370  Biso   1.000  F 
  F8       1.0000 0.94690  0.94760  0.20250  Biso   1.000  F 
  F9       1.0000 0.92980  0.76930  0.17550  Biso   1.000  F 
  O6       1.0000 0.66220  0.77590  0.22318  Biso   1.000  O 
  O7       1.0000 0.54760  0.93690  0.39141  Biso   1.000  O 
  C7       1.0000 0.56320  0.82390  0.42630  Biso   1.000  C 
  C8       1.0000 0.62910  0.79260  0.50900  Biso   1.000  C 
  F10      1.0000 0.63680  0.88710  0.54250  Biso   1.000  F 
  F11      1.0000 0.56500  0.70000  0.57040  Biso   1.000  F 
  F12      1.0000 0.75810  0.74940  0.48850  Biso   1.000  F 
  O8       1.0000 0.53430  0.73380  0.40040  Biso   1.000  O 
  N1       1.0000 0.47960  0.18660  0.25406  Biso   1.000  N 
  C9       1.0000 0.47690  0.28980  0.22210  Biso   1.000  C 
  C10      1.0000 0.47620  0.41800  0.17970  Biso   1.000  C 
  C11      1.0000 0.48720  0.45890  0.09080  Biso   1.000  C 
  C12      1.0000 0.50010  0.37180  0.03790  Biso   1.000  C 
  H1       1.0000 0.50010  0.28590  0.06480  Biso   1.000  H 
  C13      1.0000 0.51340  0.41080  0.95140  Biso   1.000  C 
  H2       1.0000 0.52290  0.35210  0.91770  Biso   1.000  H 
  C14      1.0000 0.51280  0.54110  0.90920  Biso   1.000  C 
  C15      1.0000 0.49990  0.62820  0.96210  Biso   1.000  C 
  H3       1.0000 0.49990  0.71410  0.93520  Biso   1.000  H 
  C16      1.0000 0.48660  0.58920  0.04860  Biso   1.000  C 
  H4       1.0000 0.47710  0.64790  0.08230  Biso   1.000  H 
  C17      1.0000 0.52380  0.58200  0.82030  Biso   1.000  C 
  C18      1.0000 0.52310  0.71020  0.77790  Biso   1.000  C 
  N2       1.0000 0.52040  0.81340  0.74594  Biso   1.000  N 
  Ru3      1.0000 0.52447  0.01971  0.72579  Biso   1.000  Ru
  O9       1.0000 0.45240  0.06310  0.60859  Biso   1.000  O 
  C19      1.0000 0.43680  0.17610  0.57370  Biso   1.000  C 
  C20      1.0000 0.37090  0.20740  0.49100  Biso   1.000  C 
  F13      1.0000 0.36320  0.11290  0.45750  Biso   1.000  F 
  F14      1.0000 0.43500  0.30000  0.42960  Biso   1.000  F 
  F15      1.0000 0.24190  0.25060  0.51150  Biso   1.000  F 
  O10      1.0000 0.46570  0.26620  0.59960  Biso   1.000  O 
  Ru4      1.0000 0.53653  0.22630  0.71699  Biso   1.000  Ru
  O11      1.0000 0.33780  0.22410  0.77682  Biso   1.000  O 
  C21      1.0000 0.27840  0.12330  0.79500  Biso   1.000  C 
  C22      1.0000 0.12880  0.12200  0.83330  Biso   1.000  C 
  F16      1.0000 0.10890  0.06840  0.91630  Biso   1.000  F 
  F17      1.0000 0.05310  0.05240  0.79750  Biso   1.000  F 
  F18      1.0000 0.07020  0.23070  0.82450  Biso   1.000  F 
  O12      1.0000 0.32640  0.02130  0.78393  Biso   1.000  O 
  O13      1.0000 0.73490  0.22390  0.65806  Biso   1.000  O 
  C23      1.0000 0.78200  0.12150  0.64760  Biso   1.000  C 
  C24      1.0000 0.92970  0.12190  0.60390  Biso   1.000  C 
  F19      1.0000 0.99470  0.21800  0.60690  Biso   1.000  F 
  F20      1.0000 0.93450  0.12260  0.52309  Biso   1.000  F 
  F21      1.0000 0.99670  0.02320  0.63950  Biso   1.000  F 
  O14      1.0000 0.72420  0.02100  0.66696  Biso   1.000  O 
  N3       1.0000 0.54490  0.42650  0.72528  Biso   1.000  N 
  C25      1.0000 0.53660  0.49690  0.76610  Biso   1.000  C 
  O15      1.0000 0.60520  0.18290  0.83593  Biso   1.000  O 
  C26      1.0000 0.62100  0.07120  0.87070  Biso   1.000  C 
  C27      1.0000 0.68710  0.04010  0.95370  Biso   1.000  C 
  F22      1.0000 0.81780  0.02170  0.93372  Biso   1.000  F 
  F23      1.0000 0.66850  0.13070  0.99366  Biso   1.000  F 
  F24      1.0000 0.63570  0.93790  0.01026  Biso   1.000  F 
  O16      1.0000 0.59500  0.98000  0.84444  Biso   1.000  O 
  C28      1.0000 0.46340  0.50310  0.23390  Biso   1.000  C 
  N4       1.0000 0.45510  0.57350  0.27472  Biso   1.000  N 
