data_image0
_cell_length_a       25.914
_cell_length_b       25.914
_cell_length_c       6.7986
_cell_angle_alpha    90
_cell_angle_beta     90
_cell_angle_gamma    120

_symmetry_space_group_name_H-M    "P 1"
_symmetry_int_tables_number       1

loop_
  _symmetry_equiv_pos_as_xyz
  'x, y, z'

loop_
  _atom_site_label
  _atom_site_occupancy
  _atom_site_fract_x
  _atom_site_fract_y
  _atom_site_fract_z
  _atom_site_thermal_displace_type
  _atom_site_B_iso_or_equiv
  _atom_site_type_symbol
  Zn1      1.0000 0.38360  0.35460  0.14360  Biso   1.000  Zn
  O1       1.0000 0.35370  0.27430  0.01660  Biso   1.000  O 
  C1       1.0000 0.34310  0.22120  0.09190  Biso   1.000  C 
  C2       1.0000 0.32700  0.20640  0.28370  Biso   1.000  C 
  C3       1.0000 0.31417  0.14923  0.36893  Biso   1.000  C 
  H1       1.0000 0.30577  0.14233  0.49833  Biso   1.000  H 
  C4       1.0000 0.32357  0.11213  0.24143  Biso   1.000  C 
  O2       1.0000 0.31297  0.05903  0.31673  Biso   1.000  O 
  Zn2      1.0000 0.36233  0.05027  0.52307  Biso   1.000  Zn
  O3       1.0000 0.36657  0.10663  0.72213  Biso   1.000  O 
  C5       1.0000 0.35097  0.08853  0.89943  Biso   1.000  C 
  C6       1.0000 0.33967  0.12693  0.04963  Biso   1.000  C 
  C7       1.0000 0.35250  0.18410  0.96440  Biso   1.000  C 
  H2       1.0000 0.36090  0.19100  0.83500  Biso   1.000  H 
  O4       1.0000 0.33857  0.03673  0.95823  Biso   1.000  O 
  Zn3      1.0000 0.28307  0.97873  0.18973  Biso   1.000  Zn
  O5       1.0000 0.19777  0.98133  0.05233  Biso   1.000  O 
  C8       1.0000 0.15187  0.94243  0.08933  Biso   1.000  C 
  O6       1.0000 0.10447  0.90063  0.12833  Biso   1.000  O 
  O7       1.0000 0.22670  0.92660  0.38880  Biso   1.000  O 
  C9       1.0000 0.24480  0.92910  0.56610  Biso   1.000  C 
  C10      1.0000 0.20640  0.87940  0.71630  Biso   1.000  C 
  C11      1.0000 0.14923  0.83507  0.63107  Biso   1.000  C 
  H3       1.0000 0.14233  0.83657  0.50167  Biso   1.000  H 
  C12      1.0000 0.11213  0.78857  0.75857  Biso   1.000  C 
  O8       1.0000 0.05903  0.74607  0.68327  Biso   1.000  O 
  Zn4      1.0000 0.05027  0.68793  0.47693  Biso   1.000  Zn
  O9       1.0000 0.13557  0.68533  0.61433  Biso   1.000  O 
  C13      1.0000 0.18147  0.72423  0.57733  Biso   1.000  C 
  O10      1.0000 0.22887  0.76603  0.53833  Biso   1.000  O 
  O11      1.0000 0.02037  0.60763  0.34993  Biso   1.000  O 
  C14      1.0000 0.00977  0.55453  0.42523  Biso   1.000  C 
  C15      1.0000 0.01917  0.51743  0.29773  Biso   1.000  C 
  H4       1.0000 0.02757  0.52433  0.16833  Biso   1.000  H 
  C16      1.0000 0.00633  0.46027  0.38297  Biso   1.000  C 
  C17      1.0000 0.01763  0.42187  0.23277  Biso   1.000  C 
  O12      1.0000 0.00523  0.37007  0.29157  Biso   1.000  O 
  Zn5      1.0000 0.94973  0.31207  0.52307  Biso   1.000  Zn
  O13      1.0000 0.97963  0.39237  0.65007  Biso   1.000  O 
  C18      1.0000 0.99023  0.44547  0.57477  Biso   1.000  C 
  C19      1.0000 0.98083  0.48257  0.70227  Biso   1.000  C 
  H5       1.0000 0.97243  0.47567  0.83167  Biso   1.000  H 
  C20      1.0000 0.99367  0.53973  0.61703  Biso   1.000  C 
  C21      1.0000 0.98237  0.57813  0.76723  Biso   1.000  C 
  O14      1.0000 0.99477  0.62993  0.70843  Biso   1.000  O 
  Zn6      1.0000 0.97873  0.69567  0.81027  Biso   1.000  Zn
  O15      1.0000 0.92660  0.69990  0.61120  Biso   1.000  O 
  C22      1.0000 0.92910  0.68430  0.43390  Biso   1.000  C 
  C23      1.0000 0.87940  0.67300  0.28370  Biso   1.000  C 
  C24      1.0000 0.83507  0.68583  0.36893  Biso   1.000  C 
  H6       1.0000 0.83657  0.69423  0.49833  Biso   1.000  H 
  C25      1.0000 0.78857  0.67643  0.24143  Biso   1.000  C 
  O16      1.0000 0.74607  0.68703  0.31673  Biso   1.000  O 
  Zn7      1.0000 0.68793  0.63767  0.52307  Biso   1.000  Zn
  O17      1.0000 0.74007  0.63343  0.72213  Biso   1.000  O 
  C26      1.0000 0.73757  0.64903  0.89943  Biso   1.000  C 
  C27      1.0000 0.78727  0.66033  0.04963  Biso   1.000  C 
  C28      1.0000 0.83160  0.64750  0.96440  Biso   1.000  C 
  H7       1.0000 0.83010  0.63910  0.83500  Biso   1.000  H 
  C29      1.0000 0.87810  0.65690  0.09190  Biso   1.000  C 
  O18      1.0000 0.92060  0.64630  0.01660  Biso   1.000  O 
  Zn8      1.0000 0.97100  0.61640  0.14360  Biso   1.000  Zn
  O19      1.0000 0.88310  0.53110  0.28100  Biso   1.000  O 
  C30      1.0000 0.87610  0.48520  0.24400  Biso   1.000  C 
  O20      1.0000 0.87050  0.43780  0.20500  Biso   1.000  O 
  O21      1.0000 0.96850  0.67190  0.37510  Biso   1.000  O 
  O22      1.0000 0.03673  0.69817  0.04177  Biso   1.000  O 
  C31      1.0000 0.08853  0.73757  0.10057  Biso   1.000  C 
  O23      1.0000 0.10663  0.74007  0.27787  Biso   1.000  O 
  C32      1.0000 0.12693  0.78727  0.95037  Biso   1.000  C 
  C33      1.0000 0.18410  0.83160  0.03560  Biso   1.000  C 
  H8       1.0000 0.19100  0.83010  0.16500  Biso   1.000  H 
  C34      1.0000 0.22120  0.87810  0.90810  Biso   1.000  C 
  O24      1.0000 0.27430  0.92060  0.98340  Biso   1.000  O 
  Zn9      1.0000 0.35460  0.97100  0.85640  Biso   1.000  Zn
  O25      1.0000 0.29660  0.96850  0.62490  Biso   1.000  O 
  O26      1.0000 0.35200  0.88310  0.71900  Biso   1.000  O 
  C35      1.0000 0.39090  0.87610  0.75600  Biso   1.000  C 
  O27      1.0000 0.43270  0.87050  0.79500  Biso   1.000  O 
  O28      1.0000 0.41273  0.02037  0.65007  Biso   1.000  O 
  C36      1.0000 0.45523  0.00977  0.57477  Biso   1.000  C 
  C37      1.0000 0.50173  0.01917  0.70227  Biso   1.000  C 
  H9       1.0000 0.50323  0.02757  0.83167  Biso   1.000  H 
  C38      1.0000 0.54607  0.00633  0.61703  Biso   1.000  C 
  C39      1.0000 0.59577  0.01763  0.76723  Biso   1.000  C 
  O29      1.0000 0.63517  0.00523  0.70843  Biso   1.000  O 
  Zn10     1.0000 0.63767  0.94973  0.47693  Biso   1.000  Zn
  O30      1.0000 0.58727  0.97963  0.34993  Biso   1.000  O 
  C40      1.0000 0.54477  0.99023  0.42523  Biso   1.000  C 
  C41      1.0000 0.49827  0.98083  0.29773  Biso   1.000  C 
  H10      1.0000 0.49677  0.97243  0.16833  Biso   1.000  H 
  C42      1.0000 0.45393  0.99367  0.38297  Biso   1.000  C 
  C43      1.0000 0.40423  0.98237  0.23277  Biso   1.000  C 
  O31      1.0000 0.36483  0.99477  0.29157  Biso   1.000  O 
  O32      1.0000 0.40673  0.96677  0.05547  Biso   1.000  O 
  Zn11     1.0000 0.64540  0.02900  0.14360  Biso   1.000  Zn
  O33      1.0000 0.64800  0.11690  0.28100  Biso   1.000  O 
  C44      1.0000 0.60910  0.12390  0.24400  Biso   1.000  C 
  O34      1.0000 0.56730  0.12950  0.20500  Biso   1.000  O 
  O35      1.0000 0.72570  0.07940  0.01660  Biso   1.000  O 
  C45      1.0000 0.77880  0.12190  0.09190  Biso   1.000  C 
  C46      1.0000 0.79360  0.12060  0.28370  Biso   1.000  C 
  C47      1.0000 0.85077  0.16493  0.36893  Biso   1.000  C 
  H11      1.0000 0.85767  0.16343  0.49833  Biso   1.000  H 
  C48      1.0000 0.88787  0.21143  0.24143  Biso   1.000  C 
  O36      1.0000 0.94097  0.25393  0.31673  Biso   1.000  O 
  Zn12     1.0000 0.02127  0.30433  0.18973  Biso   1.000  Zn
  O37      1.0000 0.01867  0.21643  0.05233  Biso   1.000  O 
  C49      1.0000 0.05757  0.20943  0.08933  Biso   1.000  C 
  O38      1.0000 0.09937  0.20383  0.12833  Biso   1.000  O 
  O39      1.0000 0.07340  0.30010  0.38880  Biso   1.000  O 
  C50      1.0000 0.07090  0.31570  0.56610  Biso   1.000  C 
  C51      1.0000 0.12060  0.32700  0.71630  Biso   1.000  C 
  C52      1.0000 0.12190  0.34310  0.90810  Biso   1.000  C 
  C53      1.0000 0.16840  0.35250  0.03560  Biso   1.000  C 
  H12      1.0000 0.16990  0.36090  0.16500  Biso   1.000  H 
  C54      1.0000 0.21273  0.33967  0.95037  Biso   1.000  C 
  C55      1.0000 0.21143  0.32357  0.75857  Biso   1.000  C 
  C56      1.0000 0.16493  0.31417  0.63107  Biso   1.000  C 
  H13      1.0000 0.16343  0.30577  0.50167  Biso   1.000  H 
  O40      1.0000 0.25393  0.31297  0.68327  Biso   1.000  O 
  Zn13     1.0000 0.31207  0.36233  0.47693  Biso   1.000  Zn
  Zn14     1.0000 0.30433  0.28307  0.81027  Biso   1.000  Zn
  O41      1.0000 0.30010  0.22670  0.61120  Biso   1.000  O 
  C57      1.0000 0.31570  0.24480  0.43390  Biso   1.000  C 
  O42      1.0000 0.32810  0.29660  0.37510  Biso   1.000  O 
  O43      1.0000 0.21643  0.19777  0.94767  Biso   1.000  O 
  C58      1.0000 0.20943  0.15187  0.91067  Biso   1.000  C 
  O44      1.0000 0.20383  0.10447  0.87167  Biso   1.000  O 
  O45      1.0000 0.37007  0.36483  0.70843  Biso   1.000  O 
  C59      1.0000 0.42187  0.40423  0.76723  Biso   1.000  C 
  C60      1.0000 0.46027  0.45393  0.61703  Biso   1.000  C 
  C61      1.0000 0.44547  0.45523  0.42523  Biso   1.000  C 
  C62      1.0000 0.48257  0.50173  0.29773  Biso   1.000  C 
  H14      1.0000 0.47567  0.50323  0.16833  Biso   1.000  H 
  C63      1.0000 0.53973  0.54607  0.38297  Biso   1.000  C 
  C64      1.0000 0.55453  0.54477  0.57477  Biso   1.000  C 
  C65      1.0000 0.51743  0.49827  0.70227  Biso   1.000  C 
  H15      1.0000 0.52433  0.49677  0.83167  Biso   1.000  H 
  O46      1.0000 0.60763  0.58727  0.65007  Biso   1.000  O 
  Zn15     1.0000 0.61640  0.64540  0.85640  Biso   1.000  Zn
  O47      1.0000 0.53110  0.64800  0.71900  Biso   1.000  O 
  C66      1.0000 0.48520  0.60910  0.75600  Biso   1.000  C 
  O48      1.0000 0.43780  0.56730  0.79500  Biso   1.000  O 
  O49      1.0000 0.69817  0.66143  0.95823  Biso   1.000  O 
  Zn16     1.0000 0.69567  0.71693  0.18973  Biso   1.000  Zn
  O50      1.0000 0.62993  0.63517  0.29157  Biso   1.000  O 
  C67      1.0000 0.57813  0.59577  0.23277  Biso   1.000  C 
  O51      1.0000 0.56003  0.59327  0.05547  Biso   1.000  O 
  O52      1.0000 0.69990  0.77330  0.38880  Biso   1.000  O 
  C68      1.0000 0.68430  0.75520  0.56610  Biso   1.000  C 
  C69      1.0000 0.67300  0.79360  0.71630  Biso   1.000  C 
  C70      1.0000 0.65690  0.77880  0.90810  Biso   1.000  C 
  C71      1.0000 0.64750  0.81590  0.03560  Biso   1.000  C 
  H16      1.0000 0.63910  0.80900  0.16500  Biso   1.000  H 
  C72      1.0000 0.66033  0.87307  0.95037  Biso   1.000  C 
  C73      1.0000 0.67643  0.88787  0.75857  Biso   1.000  C 
  C74      1.0000 0.68583  0.85077  0.63107  Biso   1.000  C 
  H17      1.0000 0.69423  0.85767  0.50167  Biso   1.000  H 
  O53      1.0000 0.68703  0.94097  0.68327  Biso   1.000  O 
  Zn17     1.0000 0.71693  0.02127  0.81027  Biso   1.000  Zn
  O54      1.0000 0.80223  0.01867  0.94767  Biso   1.000  O 
  C75      1.0000 0.84813  0.05757  0.91067  Biso   1.000  C 
  O55      1.0000 0.89553  0.09937  0.87167  Biso   1.000  O 
  O56      1.0000 0.77330  0.07340  0.61120  Biso   1.000  O 
  C76      1.0000 0.75520  0.07090  0.43390  Biso   1.000  C 
  O57      1.0000 0.70340  0.03150  0.37510  Biso   1.000  O 
  O58      1.0000 0.66143  0.96327  0.04177  Biso   1.000  O 
  C77      1.0000 0.64903  0.91147  0.10057  Biso   1.000  C 
  O59      1.0000 0.63343  0.89337  0.27787  Biso   1.000  O 
  O60      1.0000 0.64630  0.72570  0.98340  Biso   1.000  O 
  O61      1.0000 0.67190  0.70340  0.62490  Biso   1.000  O 
  O62      1.0000 0.78357  0.80223  0.05233  Biso   1.000  O 
  C78      1.0000 0.79057  0.84813  0.08933  Biso   1.000  C 
  O63      1.0000 0.79617  0.89553  0.12833  Biso   1.000  O 
  O64      1.0000 0.39237  0.41273  0.34993  Biso   1.000  O 
  O65      1.0000 0.43997  0.40673  0.94453  Biso   1.000  O 
  O66      1.0000 0.30183  0.33857  0.04177  Biso   1.000  O 
  C79      1.0000 0.26243  0.35097  0.10057  Biso   1.000  C 
  O67      1.0000 0.25993  0.36657  0.27787  Biso   1.000  O 
  O68      1.0000 0.31467  0.45023  0.61433  Biso   1.000  O 
  C80      1.0000 0.27577  0.45723  0.57733  Biso   1.000  C 
  O69      1.0000 0.23397  0.46283  0.53833  Biso   1.000  O 
  O70      1.0000 0.07940  0.35370  0.98340  Biso   1.000  O 
  Zn18     1.0000 0.02900  0.38360  0.85640  Biso   1.000  Zn
  O71      1.0000 0.11690  0.46890  0.71900  Biso   1.000  O 
  C81      1.0000 0.12390  0.51480  0.75600  Biso   1.000  C 
  O72      1.0000 0.12950  0.56220  0.79500  Biso   1.000  O 
  O73      1.0000 0.03150  0.32810  0.62490  Biso   1.000  O 
  O74      1.0000 0.03323  0.43997  0.05547  Biso   1.000  O 
  O75      1.0000 0.96327  0.30183  0.95823  Biso   1.000  O 
  C82      1.0000 0.91147  0.26243  0.89943  Biso   1.000  C 
  C83      1.0000 0.87307  0.21273  0.04963  Biso   1.000  C 
  C84      1.0000 0.81590  0.16840  0.96440  Biso   1.000  C 
  H18      1.0000 0.80900  0.16990  0.83500  Biso   1.000  H 
  O76      1.0000 0.89337  0.25993  0.72213  Biso   1.000  O 
  O77      1.0000 0.59327  0.03323  0.94453  Biso   1.000  O 
  O78      1.0000 0.54977  0.86443  0.61433  Biso   1.000  O 
  C85      1.0000 0.54277  0.81853  0.57733  Biso   1.000  C 
  O79      1.0000 0.53717  0.77113  0.53833  Biso   1.000  O 
  O80      1.0000 0.96677  0.56003  0.94453  Biso   1.000  O 
  O81      1.0000 0.68533  0.54977  0.38567  Biso   1.000  O 
  C86      1.0000 0.72423  0.54277  0.42267  Biso   1.000  C 
  O82      1.0000 0.76603  0.53717  0.46167  Biso   1.000  O 
  O83      1.0000 0.98133  0.78357  0.94767  Biso   1.000  O 
  C87      1.0000 0.94243  0.79057  0.91067  Biso   1.000  C 
  O84      1.0000 0.90063  0.79617  0.87167  Biso   1.000  O 
  O85      1.0000 0.86443  0.31467  0.38567  Biso   1.000  O 
  C88      1.0000 0.81853  0.27577  0.42267  Biso   1.000  C 
  O86      1.0000 0.77113  0.23397  0.46167  Biso   1.000  O 
  O87      1.0000 0.45023  0.13557  0.38567  Biso   1.000  O 
  C89      1.0000 0.45723  0.18147  0.42267  Biso   1.000  C 
  O88      1.0000 0.46283  0.22887  0.46167  Biso   1.000  O 
  O89      1.0000 0.46890  0.35200  0.28100  Biso   1.000  O 
  C90      1.0000 0.51480  0.39090  0.24400  Biso   1.000  C 
  O90      1.0000 0.56220  0.43270  0.20500  Biso   1.000  O 
