data_image0
_cell_length_a       25.8978
_cell_length_b       25.8978
_cell_length_c       6.27846
_cell_angle_alpha    90
_cell_angle_beta     90
_cell_angle_gamma    120

_symmetry_space_group_name_H-M    "P 1"
_symmetry_int_tables_number       1

loop_
  _symmetry_equiv_pos_as_xyz
  'x, y, z'

loop_
  _atom_site_label
  _atom_site_occupancy
  _atom_site_fract_x
  _atom_site_fract_y
  _atom_site_fract_z
  _atom_site_thermal_displace_type
  _atom_site_B_iso_or_equiv
  _atom_site_type_symbol
  Cu1      1.0000 0.38740  0.34916  0.17510  Biso   1.000  Cu
  O1       1.0000 0.35440  0.30040  0.42650  Biso   1.000  O 
  C1       1.0000 0.32840  0.24780  0.48500  Biso   1.000  C 
  C2       1.0000 0.32890  0.20820  0.30410  Biso   1.000  C 
  C3       1.0000 0.31207  0.14953  0.35743  Biso   1.000  C 
  H1       1.0000 0.29091  0.13401  0.51222  Biso   1.000  H 
  C4       1.0000 0.31877  0.11083  0.24263  Biso   1.000  C 
  O2       1.0000 0.30427  0.05523  0.32143  Biso   1.000  O 
  Cu2      1.0000 0.37157  0.05407  0.49157  Biso   1.000  Cu
  C5       1.0000 0.33827  0.08553  0.84833  Biso   1.000  C 
  C6       1.0000 0.33777  0.12513  0.02923  Biso   1.000  C 
  C7       1.0000 0.35460  0.18380  0.97590  Biso   1.000  C 
  H2       1.0000 0.37575  0.19932  0.82111  Biso   1.000  H 
  C8       1.0000 0.34790  0.22250  0.09070  Biso   1.000  C 
  O3       1.0000 0.36240  0.27810  0.01190  Biso   1.000  O 
  Cu3      1.0000 0.29509  0.27927  0.84177  Biso   1.000  Cu
  O4       1.0000 0.28990  0.22550  0.63330  Biso   1.000  O 
  O5       1.0000 0.24903  0.30427  0.67857  Biso   1.000  O 
  C9       1.0000 0.20793  0.31877  0.75737  Biso   1.000  C 
  C10      1.0000 0.16253  0.31207  0.64257  Biso   1.000  C 
  H3       1.0000 0.15690  0.29091  0.48778  Biso   1.000  H 
  C11      1.0000 0.12070  0.32890  0.69590  Biso   1.000  C 
  C12      1.0000 0.12540  0.34790  0.90930  Biso   1.000  C 
  C13      1.0000 0.17080  0.35460  0.02410  Biso   1.000  C 
  H4       1.0000 0.17643  0.37575  0.17888  Biso   1.000  H 
  C14      1.0000 0.21263  0.33777  0.97077  Biso   1.000  C 
  C15      1.0000 0.25273  0.33827  0.15167  Biso   1.000  C 
  Cu4      1.0000 0.31751  0.37157  0.50843  Biso   1.000  Cu
  O6       1.0000 0.26893  0.37677  0.29997  Biso   1.000  O 
  O7       1.0000 0.36627  0.38733  0.75983  Biso   1.000  O 
  C16      1.0000 0.41887  0.41393  0.81833  Biso   1.000  C 
  C17      1.0000 0.45847  0.45403  0.63743  Biso   1.000  C 
  C18      1.0000 0.44417  0.45873  0.42403  Biso   1.000  C 
  C19      1.0000 0.48287  0.50413  0.30923  Biso   1.000  C 
  H5       1.0000 0.46734  0.50976  0.15445  Biso   1.000  H 
  C20      1.0000 0.54153  0.54597  0.36257  Biso   1.000  C 
  C21      1.0000 0.55583  0.54127  0.57597  Biso   1.000  C 
  C22      1.0000 0.51713  0.49587  0.69077  Biso   1.000  C 
  H6       1.0000 0.53266  0.49024  0.84555  Biso   1.000  H 
  O8       1.0000 0.61143  0.58237  0.65477  Biso   1.000  O 
  Cu5      1.0000 0.61260  0.65084  0.82490  Biso   1.000  Cu
  Cu6      1.0000 0.68249  0.62843  0.49157  Biso   1.000  Cu
  O9       1.0000 0.73107  0.62323  0.70003  Biso   1.000  O 
  C23      1.0000 0.74727  0.66173  0.84833  Biso   1.000  C 
  C24      1.0000 0.78737  0.66223  0.02923  Biso   1.000  C 
  C25      1.0000 0.79207  0.68123  0.24263  Biso   1.000  C 
  C26      1.0000 0.83747  0.68793  0.35743  Biso   1.000  C 
  H7       1.0000 0.84310  0.70909  0.51222  Biso   1.000  H 
  C27      1.0000 0.87930  0.67110  0.30410  Biso   1.000  C 
  C28      1.0000 0.87460  0.65210  0.09070  Biso   1.000  C 
  O10      1.0000 0.91570  0.63760  0.01190  Biso   1.000  O 
  Cu7      1.0000 0.96176  0.61260  0.17510  Biso   1.000  Cu
  O11      1.0000 0.94600  0.64560  0.42650  Biso   1.000  O 
  C29      1.0000 0.91940  0.67160  0.48500  Biso   1.000  C 
  Cu8      1.0000 0.98417  0.70491  0.84177  Biso   1.000  Cu
  O12      1.0000 0.93560  0.71010  0.63330  Biso   1.000  O 
  O13      1.0000 0.02107  0.63373  0.75983  Biso   1.000  O 
  Cu9      1.0000 0.05407  0.68249  0.50843  Biso   1.000  Cu
  O14      1.0000 0.05523  0.75097  0.67857  Biso   1.000  O 
  C30      1.0000 0.11083  0.79207  0.75737  Biso   1.000  C 
  C31      1.0000 0.14953  0.83747  0.64257  Biso   1.000  C 
  H8       1.0000 0.13401  0.84310  0.48778  Biso   1.000  H 
  C32      1.0000 0.20820  0.87930  0.69590  Biso   1.000  C 
  C33      1.0000 0.22250  0.87460  0.90930  Biso   1.000  C 
  C34      1.0000 0.18380  0.82920  0.02410  Biso   1.000  C 
  H9       1.0000 0.19932  0.82357  0.17888  Biso   1.000  H 
  C35      1.0000 0.12513  0.78737  0.97077  Biso   1.000  C 
  C36      1.0000 0.08553  0.74727  0.15167  Biso   1.000  C 
  O15      1.0000 0.03293  0.72067  0.09317  Biso   1.000  O 
  O16      1.0000 0.10783  0.73107  0.29997  Biso   1.000  O 
  O17      1.0000 0.27810  0.91570  0.98810  Biso   1.000  O 
  Cu10     1.0000 0.27927  0.98417  0.15823  Biso   1.000  Cu
  O18      1.0000 0.22550  0.93560  0.36670  Biso   1.000  O 
  C37      1.0000 0.24780  0.91940  0.51500  Biso   1.000  C 
  O19      1.0000 0.30040  0.94600  0.57350  Biso   1.000  O 
  Cu11     1.0000 0.34916  0.96176  0.82490  Biso   1.000  Cu
  O20      1.0000 0.31227  0.03293  0.90683  Biso   1.000  O 
  O21      1.0000 0.41763  0.02907  0.65477  Biso   1.000  O 
  C38      1.0000 0.45873  0.01457  0.57597  Biso   1.000  C 
  C39      1.0000 0.50413  0.02127  0.69077  Biso   1.000  C 
  H10      1.0000 0.50976  0.04242  0.84555  Biso   1.000  H 
  C40      1.0000 0.54597  0.00443  0.63743  Biso   1.000  C 
  C41      1.0000 0.58607  0.00493  0.81833  Biso   1.000  C 
  Cu12     1.0000 0.65084  0.03824  0.17510  Biso   1.000  Cu
  O22      1.0000 0.69960  0.05400  0.42650  Biso   1.000  O 
  C42      1.0000 0.75220  0.08060  0.48500  Biso   1.000  C 
  C43      1.0000 0.79180  0.12070  0.30410  Biso   1.000  C 
  C44      1.0000 0.77750  0.12540  0.09070  Biso   1.000  C 
  O23      1.0000 0.72190  0.08430  0.01190  Biso   1.000  O 
  Cu13     1.0000 0.72073  0.01583  0.84177  Biso   1.000  Cu
  O24      1.0000 0.77450  0.06440  0.63330  Biso   1.000  O 
  O25      1.0000 0.68773  0.96707  0.09317  Biso   1.000  O 
  C45      1.0000 0.66173  0.91447  0.15167  Biso   1.000  C 
  Cu14     1.0000 0.62843  0.94593  0.50843  Biso   1.000  Cu
  O26      1.0000 0.58237  0.97093  0.34523  Biso   1.000  O 
  C46      1.0000 0.54127  0.98543  0.42403  Biso   1.000  C 
  C47      1.0000 0.49587  0.97873  0.30923  Biso   1.000  C 
  H11      1.0000 0.49024  0.95758  0.15445  Biso   1.000  H 
  C48      1.0000 0.45403  0.99557  0.36257  Biso   1.000  C 
  C49      1.0000 0.41393  0.99507  0.18167  Biso   1.000  C 
  O27      1.0000 0.38733  0.02107  0.24017  Biso   1.000  O 
  O28      1.0000 0.39773  0.95657  0.03337  Biso   1.000  O 
  O29      1.0000 0.61267  0.97893  0.75983  Biso   1.000  O 
  O30      1.0000 0.62323  0.89217  0.29997  Biso   1.000  O 
  O31      1.0000 0.69573  0.94477  0.67857  Biso   1.000  O 
  C50      1.0000 0.68123  0.88917  0.75737  Biso   1.000  C 
  C51      1.0000 0.68793  0.85047  0.64257  Biso   1.000  C 
  H12      1.0000 0.70909  0.86599  0.48778  Biso   1.000  H 
  C52      1.0000 0.67110  0.79180  0.69590  Biso   1.000  C 
  C53      1.0000 0.65210  0.77750  0.90930  Biso   1.000  C 
  C54      1.0000 0.64540  0.81620  0.02410  Biso   1.000  C 
  H13      1.0000 0.62425  0.80068  0.17888  Biso   1.000  H 
  C55      1.0000 0.66223  0.87487  0.97077  Biso   1.000  C 
  O32      1.0000 0.63760  0.72190  0.98810  Biso   1.000  O 
  Cu15     1.0000 0.70491  0.72073  0.15823  Biso   1.000  Cu
  O33      1.0000 0.63373  0.61267  0.24017  Biso   1.000  O 
  C56      1.0000 0.58113  0.58607  0.18167  Biso   1.000  C 
  O34      1.0000 0.55883  0.60227  0.03337  Biso   1.000  O 
  O35      1.0000 0.71010  0.77450  0.36670  Biso   1.000  O 
  C57      1.0000 0.67160  0.75220  0.51500  Biso   1.000  C 
  O36      1.0000 0.64560  0.69960  0.57350  Biso   1.000  O 
  O37      1.0000 0.75097  0.69573  0.32143  Biso   1.000  O 
  O38      1.0000 0.72067  0.68773  0.90683  Biso   1.000  O 
  C58      1.0000 0.81620  0.17080  0.97590  Biso   1.000  C 
  H14      1.0000 0.80068  0.17643  0.82111  Biso   1.000  H 
  C59      1.0000 0.87487  0.21263  0.02923  Biso   1.000  C 
  C60      1.0000 0.88917  0.20793  0.24263  Biso   1.000  C 
  C61      1.0000 0.85047  0.16253  0.35743  Biso   1.000  C 
  H15      1.0000 0.86599  0.15690  0.51222  Biso   1.000  H 
  O39      1.0000 0.94477  0.24903  0.32143  Biso   1.000  O 
  Cu16     1.0000 0.01583  0.29509  0.15823  Biso   1.000  Cu
  O40      1.0000 0.06440  0.28990  0.36670  Biso   1.000  O 
  C62      1.0000 0.08060  0.32840  0.51500  Biso   1.000  C 
  O41      1.0000 0.05400  0.35440  0.57350  Biso   1.000  O 
  Cu17     1.0000 0.03824  0.38740  0.82490  Biso   1.000  Cu
  O42      1.0000 0.08430  0.36240  0.98810  Biso   1.000  O 
  O43      1.0000 0.04343  0.44117  0.03337  Biso   1.000  O 
  C63      1.0000 0.00493  0.41887  0.18167  Biso   1.000  C 
  C64      1.0000 0.00443  0.45847  0.36257  Biso   1.000  C 
  C65      1.0000 0.02127  0.51713  0.30923  Biso   1.000  C 
  H16      1.0000 0.04242  0.53266  0.15445  Biso   1.000  H 
  C66      1.0000 0.01457  0.55583  0.42403  Biso   1.000  C 
  O44      1.0000 0.02907  0.61143  0.34523  Biso   1.000  O 
  C67      1.0000 0.99557  0.54153  0.63743  Biso   1.000  C 
  C68      1.0000 0.97873  0.48287  0.69077  Biso   1.000  C 
  H17      1.0000 0.95758  0.46734  0.84555  Biso   1.000  H 
  C69      1.0000 0.98543  0.44417  0.57597  Biso   1.000  C 
  O45      1.0000 0.97093  0.38857  0.65477  Biso   1.000  O 
  Cu18     1.0000 0.94593  0.31751  0.49157  Biso   1.000  Cu
  O46      1.0000 0.97893  0.36627  0.24017  Biso   1.000  O 
  C70      1.0000 0.91447  0.25273  0.84833  Biso   1.000  C 
  O47      1.0000 0.96707  0.27933  0.90683  Biso   1.000  O 
  O48      1.0000 0.89217  0.26893  0.70003  Biso   1.000  O 
  C71      1.0000 0.99507  0.58113  0.81833  Biso   1.000  C 
  O49      1.0000 0.95657  0.55883  0.96663  Biso   1.000  O 
  O50      1.0000 0.60227  0.04343  0.96663  Biso   1.000  O 
  C72      1.0000 0.82920  0.64540  0.97590  Biso   1.000  C 
  H18      1.0000 0.82357  0.62425  0.82111  Biso   1.000  H 
  O51      1.0000 0.38857  0.41763  0.34523  Biso   1.000  O 
  O52      1.0000 0.44117  0.39773  0.96663  Biso   1.000  O 
  O53      1.0000 0.27933  0.31227  0.09317  Biso   1.000  O 
  O54      1.0000 0.37677  0.10783  0.70003  Biso   1.000  O 
