data_image0
_cell_length_a       9.4166
_cell_length_b       25.7859
_cell_length_c       11.9616
_cell_angle_alpha    90
_cell_angle_beta     108.614
_cell_angle_gamma    90

_symmetry_space_group_name_H-M    "P 1"
_symmetry_int_tables_number       1

loop_
  _symmetry_equiv_pos_as_xyz
  'x, y, z'

loop_
  _atom_site_label
  _atom_site_occupancy
  _atom_site_fract_x
  _atom_site_fract_y
  _atom_site_fract_z
  _atom_site_thermal_displace_type
  _atom_site_B_iso_or_equiv
  _atom_site_type_symbol
  Zn1      1.0000 0.05729  0.10452  0.97965  Biso   1.000  Zn
  Zn2      1.0000 0.94271  0.60452  0.52035  Biso   1.000  Zn
  Zn3      1.0000 0.94271  0.89548  0.02035  Biso   1.000  Zn
  Zn4      1.0000 0.05729  0.39548  0.47965  Biso   1.000  Zn
  O1       1.0000 0.34280  0.14909  0.08880  Biso   1.000  O 
  O2       1.0000 0.65720  0.64909  0.41120  Biso   1.000  O 
  O3       1.0000 0.65720  0.85091  0.91120  Biso   1.000  O 
  O4       1.0000 0.34280  0.35091  0.58880  Biso   1.000  O 
  O5       1.0000 0.14030  0.16989  0.94360  Biso   1.000  O 
  O6       1.0000 0.85970  0.66989  0.55640  Biso   1.000  O 
  O7       1.0000 0.85970  0.83011  0.05640  Biso   1.000  O 
  O8       1.0000 0.14030  0.33011  0.44360  Biso   1.000  O 
  O9       1.0000 0.95860  0.57058  0.73050  Biso   1.000  O 
  O10      1.0000 0.04140  0.07058  0.76950  Biso   1.000  O 
  O11      1.0000 0.04140  0.42942  0.26950  Biso   1.000  O 
  O12      1.0000 0.95860  0.92942  0.23050  Biso   1.000  O 
  O13      1.0000 0.84760  0.54088  0.55090  Biso   1.000  O 
  O14      1.0000 0.15240  0.04088  0.94910  Biso   1.000  O 
  O15      1.0000 0.15240  0.45912  0.44910  Biso   1.000  O 
  O16      1.0000 0.84760  0.95912  0.05090  Biso   1.000  O 
  O17      1.0000 0.71780  0.36750  0.00030  Biso   1.000  O 
  O18      1.0000 0.28220  0.86750  0.49970  Biso   1.000  O 
  O19      1.0000 0.28220  0.63250  0.99970  Biso   1.000  O 
  O20      1.0000 0.71780  0.13250  0.50030  Biso   1.000  O 
  N1       1.0000 0.07500  0.10018  0.15290  Biso   1.000  N 
  N2       1.0000 0.92500  0.60018  0.34710  Biso   1.000  N 
  N3       1.0000 0.92500  0.89982  0.84710  Biso   1.000  N 
  N4       1.0000 0.07500  0.39982  0.65290  Biso   1.000  N 
  N5       1.0000 0.83290  0.11364  0.90450  Biso   1.000  N 
  N6       1.0000 0.16710  0.61364  0.59550  Biso   1.000  N 
  N7       1.0000 0.16710  0.88636  0.09550  Biso   1.000  N 
  N8       1.0000 0.83290  0.38636  0.40450  Biso   1.000  N 
  N9       1.0000 0.53510  0.34600  0.83480  Biso   1.000  N 
  N10      1.0000 0.46490  0.84600  0.66520  Biso   1.000  N 
  N11      1.0000 0.46490  0.65400  0.16520  Biso   1.000  N 
  N12      1.0000 0.53510  0.15400  0.33480  Biso   1.000  N 
  C1       1.0000 0.18140  0.07370  0.22590  Biso   1.000  C 
  C2       1.0000 0.81860  0.57370  0.27410  Biso   1.000  C 
  C3       1.0000 0.81860  0.92630  0.77410  Biso   1.000  C 
  C4       1.0000 0.18140  0.42630  0.72590  Biso   1.000  C 
  H1       1.0000 0.23920  0.05080  0.19540  Biso   1.000  H 
  H2       1.0000 0.76080  0.55080  0.30460  Biso   1.000  H 
  H3       1.0000 0.76080  0.94920  0.80460  Biso   1.000  H 
  H4       1.0000 0.23920  0.44920  0.69540  Biso   1.000  H 
  C5       1.0000 0.21510  0.07770  0.35160  Biso   1.000  C 
  C6       1.0000 0.78490  0.57770  0.14840  Biso   1.000  C 
  C7       1.0000 0.78490  0.92230  0.64840  Biso   1.000  C 
  C8       1.0000 0.21510  0.42230  0.85160  Biso   1.000  C 
  H5       1.0000 0.29220  0.05770  0.40480  Biso   1.000  H 
  H6       1.0000 0.70780  0.55770  0.09520  Biso   1.000  H 
  H7       1.0000 0.70780  0.94230  0.59520  Biso   1.000  H 
  H8       1.0000 0.29220  0.44230  0.90480  Biso   1.000  H 
  C9       1.0000 0.12950  0.11200  0.39020  Biso   1.000  C 
  C10      1.0000 0.87050  0.61200  0.10980  Biso   1.000  C 
  C11      1.0000 0.87050  0.88800  0.60980  Biso   1.000  C 
  C12      1.0000 0.12950  0.38800  0.89020  Biso   1.000  C 
  C13      1.0000 0.01820  0.13860  0.31710  Biso   1.000  C 
  C14      1.0000 0.98180  0.63860  0.18290  Biso   1.000  C 
  C15      1.0000 0.98180  0.86140  0.68290  Biso   1.000  C 
  C16      1.0000 0.01820  0.36140  0.81710  Biso   1.000  C 
  H9       1.0000 0.95800  0.16130  0.34540  Biso   1.000  H 
  H10      1.0000 0.04200  0.66130  0.15460  Biso   1.000  H 
  H11      1.0000 0.04200  0.83870  0.65460  Biso   1.000  H 
  H12      1.0000 0.95800  0.33870  0.84540  Biso   1.000  H 
  C17      1.0000 0.99340  0.13200  0.19890  Biso   1.000  C 
  C18      1.0000 0.00660  0.63200  0.30110  Biso   1.000  C 
  C19      1.0000 0.00660  0.86800  0.80110  Biso   1.000  C 
  C20      1.0000 0.99340  0.36800  0.69890  Biso   1.000  C 
  H13      1.0000 0.91380  0.15090  0.14560  Biso   1.000  H 
  H14      1.0000 0.08620  0.65090  0.35440  Biso   1.000  H 
  H15      1.0000 0.08620  0.84910  0.85440  Biso   1.000  H 
  H16      1.0000 0.91380  0.34910  0.64560  Biso   1.000  H 
  C21      1.0000 0.16810  0.12090  0.52660  Biso   1.000  C 
  C22      1.0000 0.83190  0.62090  0.97340  Biso   1.000  C 
  C23      1.0000 0.83190  0.87910  0.47340  Biso   1.000  C 
  C24      1.0000 0.16810  0.37910  0.02660  Biso   1.000  C 
  H17      1.0000 0.13820  0.15660  0.53950  Biso   1.000  H 
  H18      1.0000 0.86180  0.65660  0.96050  Biso   1.000  H 
  H19      1.0000 0.86180  0.84340  0.46050  Biso   1.000  H 
  H20      1.0000 0.13820  0.34340  0.03950  Biso   1.000  H 
  H21      1.0000 0.10660  0.09680  0.55650  Biso   1.000  H 
  H22      1.0000 0.89340  0.59680  0.94350  Biso   1.000  H 
  H23      1.0000 0.89340  0.90320  0.44350  Biso   1.000  H 
  H24      1.0000 0.10660  0.40320  0.05650  Biso   1.000  H 
  C25      1.0000 0.32550  0.11360  0.59660  Biso   1.000  C 
  C26      1.0000 0.67450  0.61360  0.90340  Biso   1.000  C 
  C27      1.0000 0.67450  0.88640  0.40340  Biso   1.000  C 
  C28      1.0000 0.32550  0.38640  0.09660  Biso   1.000  C 
  H25      1.0000 0.38840  0.13450  0.56110  Biso   1.000  H 
  H26      1.0000 0.61160  0.63450  0.93890  Biso   1.000  H 
  H27      1.0000 0.61160  0.86550  0.43890  Biso   1.000  H 
  H28      1.0000 0.38840  0.36550  0.06110  Biso   1.000  H 
  H29      1.0000 0.35220  0.07670  0.59240  Biso   1.000  H 
  H30      1.0000 0.64780  0.57670  0.90760  Biso   1.000  H 
  H31      1.0000 0.64780  0.92330  0.40760  Biso   1.000  H 
  H32      1.0000 0.35220  0.42330  0.09240  Biso   1.000  H 
  C29      1.0000 0.36240  0.12900  0.72660  Biso   1.000  C 
  C30      1.0000 0.63760  0.62900  0.77340  Biso   1.000  C 
  C31      1.0000 0.63760  0.87100  0.27340  Biso   1.000  C 
  C32      1.0000 0.36240  0.37100  0.22660  Biso   1.000  C 
  H33      1.0000 0.33170  0.16540  0.73180  Biso   1.000  H 
  H34      1.0000 0.66830  0.66540  0.76820  Biso   1.000  H 
  H35      1.0000 0.66830  0.83460  0.26820  Biso   1.000  H 
  H36      1.0000 0.33170  0.33460  0.23180  Biso   1.000  H 
  H37      1.0000 0.30510  0.10670  0.76430  Biso   1.000  H 
  H38      1.0000 0.69490  0.60670  0.73570  Biso   1.000  H 
  H39      1.0000 0.69490  0.89330  0.23570  Biso   1.000  H 
  H40      1.0000 0.30510  0.39330  0.26430  Biso   1.000  H 
  C33      1.0000 0.52550  0.12346  0.79060  Biso   1.000  C 
  C34      1.0000 0.47450  0.62346  0.70940  Biso   1.000  C 
  C35      1.0000 0.47450  0.87654  0.20940  Biso   1.000  C 
  C36      1.0000 0.52550  0.37654  0.29060  Biso   1.000  C 
  C37      1.0000 0.61720  0.16573  0.81980  Biso   1.000  C 
  C38      1.0000 0.38280  0.66573  0.68020  Biso   1.000  C 
  C39      1.0000 0.38280  0.83427  0.18020  Biso   1.000  C 
  C40      1.0000 0.61720  0.33427  0.31980  Biso   1.000  C 
  H41      1.0000 0.57640  0.19960  0.80150  Biso   1.000  H 
  H42      1.0000 0.42360  0.69960  0.69850  Biso   1.000  H 
  H43      1.0000 0.42360  0.80040  0.19850  Biso   1.000  H 
  H44      1.0000 0.57640  0.30040  0.30150  Biso   1.000  H 
  C41      1.0000 0.76720  0.15959  0.87530  Biso   1.000  C 
  C42      1.0000 0.23280  0.65959  0.62470  Biso   1.000  C 
  C43      1.0000 0.23280  0.84041  0.12470  Biso   1.000  C 
  C44      1.0000 0.76720  0.34041  0.37530  Biso   1.000  C 
  H45      1.0000 0.82810  0.18980  0.89410  Biso   1.000  H 
  H46      1.0000 0.17190  0.68980  0.60590  Biso   1.000  H 
  H47      1.0000 0.17190  0.81020  0.10590  Biso   1.000  H 
  H48      1.0000 0.82810  0.31020  0.39410  Biso   1.000  H 
  C45      1.0000 0.74380  0.07236  0.87510  Biso   1.000  C 
  C46      1.0000 0.25620  0.57236  0.62490  Biso   1.000  C 
  C47      1.0000 0.25620  0.92764  0.12490  Biso   1.000  C 
  C48      1.0000 0.74380  0.42764  0.37510  Biso   1.000  C 
  H49      1.0000 0.78750  0.03890  0.89330  Biso   1.000  H 
  H50      1.0000 0.21250  0.53890  0.60670  Biso   1.000  H 
  H51      1.0000 0.21250  0.96110  0.10670  Biso   1.000  H 
  H52      1.0000 0.78750  0.46110  0.39330  Biso   1.000  H 
  C49      1.0000 0.59330  0.07570  0.82030  Biso   1.000  C 
  C50      1.0000 0.40670  0.57570  0.67970  Biso   1.000  C 
  C51      1.0000 0.40670  0.92430  0.17970  Biso   1.000  C 
  C52      1.0000 0.59330  0.42430  0.32030  Biso   1.000  C 
  H53      1.0000 0.53460  0.04500  0.80230  Biso   1.000  H 
  H54      1.0000 0.46540  0.54500  0.69770  Biso   1.000  H 
  H55      1.0000 0.46540  0.95500  0.19770  Biso   1.000  H 
  H56      1.0000 0.53460  0.45500  0.30230  Biso   1.000  H 
  C53      1.0000 0.27610  0.17714  0.00550  Biso   1.000  C 
  C54      1.0000 0.72390  0.67714  0.49450  Biso   1.000  C 
  C55      1.0000 0.72390  0.82286  0.99450  Biso   1.000  C 
  C56      1.0000 0.27610  0.32286  0.50550  Biso   1.000  C 
  C57      1.0000 0.35480  0.22208  0.97210  Biso   1.000  C 
  C58      1.0000 0.64520  0.72208  0.52790  Biso   1.000  C 
  C59      1.0000 0.64520  0.77792  0.02790  Biso   1.000  C 
  C60      1.0000 0.35480  0.27792  0.47210  Biso   1.000  C 
  C61      1.0000 0.49860  0.23451  0.04010  Biso   1.000  C 
  C62      1.0000 0.50140  0.73451  0.45990  Biso   1.000  C 
  C63      1.0000 0.50140  0.76549  0.95990  Biso   1.000  C 
  C64      1.0000 0.49860  0.26549  0.54010  Biso   1.000  C 
  H57      1.0000 0.54660  0.21480  0.10890  Biso   1.000  H 
  H58      1.0000 0.45340  0.71480  0.39110  Biso   1.000  H 
  H59      1.0000 0.45340  0.78520  0.89110  Biso   1.000  H 
  H60      1.0000 0.54660  0.28520  0.60890  Biso   1.000  H 
  C65      1.0000 0.57460  0.27550  0.00940  Biso   1.000  C 
  C66      1.0000 0.42540  0.77550  0.49060  Biso   1.000  C 
  C67      1.0000 0.42540  0.72450  0.99060  Biso   1.000  C 
  C68      1.0000 0.57460  0.22450  0.50940  Biso   1.000  C 
  H61      1.0000 0.67350  0.28370  0.05770  Biso   1.000  H 
  H62      1.0000 0.32650  0.78370  0.44230  Biso   1.000  H 
  H63      1.0000 0.32650  0.71630  0.94230  Biso   1.000  H 
  H64      1.0000 0.67350  0.21630  0.55770  Biso   1.000  H 
  C69      1.0000 0.50780  0.30430  0.91010  Biso   1.000  C 
  C70      1.0000 0.49220  0.80430  0.58990  Biso   1.000  C 
  C71      1.0000 0.49220  0.69570  0.08990  Biso   1.000  C 
  C72      1.0000 0.50780  0.19570  0.41010  Biso   1.000  C 
  C73      1.0000 0.36440  0.29180  0.84160  Biso   1.000  C 
  C74      1.0000 0.63560  0.79180  0.65840  Biso   1.000  C 
  C75      1.0000 0.63560  0.70820  0.15840  Biso   1.000  C 
  C76      1.0000 0.36440  0.20820  0.34160  Biso   1.000  C 
  H65      1.0000 0.31750  0.31130  0.77240  Biso   1.000  H 
  H66      1.0000 0.68250  0.81130  0.72760  Biso   1.000  H 
  H67      1.0000 0.68250  0.68870  0.22760  Biso   1.000  H 
  H68      1.0000 0.31750  0.18870  0.27240  Biso   1.000  H 
  C77      1.0000 0.28710  0.25120  0.87150  Biso   1.000  C 
  C78      1.0000 0.71290  0.75120  0.62850  Biso   1.000  C 
  C79      1.0000 0.71290  0.74880  0.12850  Biso   1.000  C 
  C80      1.0000 0.28710  0.24880  0.37150  Biso   1.000  C 
  H69      1.0000 0.18790  0.24330  0.82330  Biso   1.000  H 
  H70      1.0000 0.81210  0.74330  0.67670  Biso   1.000  H 
  H71      1.0000 0.81210  0.75670  0.17670  Biso   1.000  H 
  H72      1.0000 0.18790  0.25670  0.32330  Biso   1.000  H 
  C81      1.0000 0.66520  0.41840  0.79710  Biso   1.000  C 
  C82      1.0000 0.33480  0.91840  0.70290  Biso   1.000  C 
  C83      1.0000 0.33480  0.58160  0.20290  Biso   1.000  C 
  C84      1.0000 0.66520  0.08160  0.29710  Biso   1.000  C 
  C85      1.0000 0.77950  0.44820  0.87390  Biso   1.000  C 
  C86      1.0000 0.22050  0.94820  0.62610  Biso   1.000  C 
  C87      1.0000 0.22050  0.55180  0.12610  Biso   1.000  C 
  C88      1.0000 0.77950  0.05180  0.37390  Biso   1.000  C 
  H73      1.0000 0.81080  0.44170  0.95640  Biso   1.000  H 
  H74      1.0000 0.18920  0.94170  0.54360  Biso   1.000  H 
  H75      1.0000 0.18920  0.55830  0.04360  Biso   1.000  H 
  H76      1.0000 0.81080  0.05830  0.45640  Biso   1.000  H 
  C89      1.0000 0.84660  0.48740  0.82910  Biso   1.000  C 
  C90      1.0000 0.15340  0.98740  0.67090  Biso   1.000  C 
  C91      1.0000 0.15340  0.51260  0.17090  Biso   1.000  C 
  C92      1.0000 0.84660  0.01260  0.32910  Biso   1.000  C 
  H77      1.0000 0.92450  0.50750  0.88110  Biso   1.000  H 
  H78      1.0000 0.07550  0.00750  0.61890  Biso   1.000  H 
  H79      1.0000 0.07550  0.49250  0.11890  Biso   1.000  H 
  H80      1.0000 0.92450  0.99250  0.38110  Biso   1.000  H 
  C93      1.0000 0.80100  0.49728  0.70940  Biso   1.000  C 
  C94      1.0000 0.19900  0.99728  0.79060  Biso   1.000  C 
  C95      1.0000 0.19900  0.50272  0.29060  Biso   1.000  C 
  C96      1.0000 0.80100  0.00272  0.20940  Biso   1.000  C 
  C97      1.0000 0.68460  0.46859  0.63590  Biso   1.000  C 
  C98      1.0000 0.31540  0.96859  0.86410  Biso   1.000  C 
  C99      1.0000 0.31540  0.53141  0.36410  Biso   1.000  C 
  C100     1.0000 0.68460  0.03141  0.13590  Biso   1.000  C 
  H81      1.0000 0.65030  0.47580  0.55380  Biso   1.000  H 
  H82      1.0000 0.34970  0.97580  0.94620  Biso   1.000  H 
  H83      1.0000 0.34970  0.52420  0.44620  Biso   1.000  H 
  H84      1.0000 0.65030  0.02420  0.05380  Biso   1.000  H 
  C101     1.0000 0.61760  0.42990  0.67960  Biso   1.000  C 
  C102     1.0000 0.38240  0.92990  0.82040  Biso   1.000  C 
  C103     1.0000 0.38240  0.57010  0.32040  Biso   1.000  C 
  C104     1.0000 0.61760  0.07010  0.17960  Biso   1.000  C 
  H85      1.0000 0.53710  0.41080  0.62750  Biso   1.000  H 
  H86      1.0000 0.46290  0.91080  0.87250  Biso   1.000  H 
  H87      1.0000 0.46290  0.58920  0.37250  Biso   1.000  H 
  H88      1.0000 0.53710  0.08920  0.12750  Biso   1.000  H 
  C105     1.0000 0.87600  0.53912  0.66320  Biso   1.000  C 
  C106     1.0000 0.12400  0.03912  0.83680  Biso   1.000  C 
  C107     1.0000 0.12400  0.46088  0.33680  Biso   1.000  C 
  C108     1.0000 0.87600  0.96088  0.16320  Biso   1.000  C 
  C109     1.0000 0.63690  0.37740  0.90030  Biso   1.000  C 
  C110     1.0000 0.36310  0.87740  0.59970  Biso   1.000  C 
  C111     1.0000 0.36310  0.62260  0.09970  Biso   1.000  C 
  C112     1.0000 0.63690  0.12260  0.40030  Biso   1.000  C 
  O21      1.0000 0.95010  0.32020  0.18060  Biso   1.000  O 
  O22      1.0000 0.04990  0.82020  0.31940  Biso   1.000  O 
  O23      1.0000 0.04990  0.67980  0.81940  Biso   1.000  O 
  O24      1.0000 0.95010  0.17980  0.68060  Biso   1.000  O 
  O25      1.0000 0.03430  0.76180  0.50290  Biso   1.000  O 
  O26      1.0000 0.96570  0.26180  0.99710  Biso   1.000  O 
  O27      1.0000 0.96570  0.23820  0.49710  Biso   1.000  O 
  O28      1.0000 0.03430  0.73820  0.00290  Biso   1.000  O 
  O29      1.0000 0.83050  0.22630  0.25000  Biso   1.000  O 
  O30      1.0000 0.16950  0.72630  0.25000  Biso   1.000  O 
  O31      1.0000 0.16950  0.77370  0.75000  Biso   1.000  O 
  O32      1.0000 0.83050  0.27370  0.75000  Biso   1.000  O 
  H89      1.0000 0.05555  0.32020  0.18060  Biso   1.000  H 
  H90      1.0000 0.94445  0.82020  0.31940  Biso   1.000  H 
  H91      1.0000 0.94445  0.67980  0.81940  Biso   1.000  H 
  H92      1.0000 0.05555  0.17980  0.68060  Biso   1.000  H 
  H93      1.0000 0.89821  0.35164  0.13931  Biso   1.000  H 
  H94      1.0000 0.10179  0.85164  0.36069  Biso   1.000  H 
  H95      1.0000 0.10179  0.64836  0.86069  Biso   1.000  H 
  H96      1.0000 0.89821  0.14836  0.63931  Biso   1.000  H 
  H97      1.0000 0.13975  0.76180  0.50290  Biso   1.000  H 
  H98      1.0000 0.86025  0.26180  0.99710  Biso   1.000  H 
  H99      1.0000 0.86025  0.23820  0.49710  Biso   1.000  H 
  H100     1.0000 0.13975  0.73820  0.00290  Biso   1.000  H 
  H101     1.0000 0.98241  0.79324  0.46161  Biso   1.000  H 
  H102     1.0000 0.01759  0.29324  0.03839  Biso   1.000  H 
  H103     1.0000 0.01759  0.20676  0.53839  Biso   1.000  H 
  H104     1.0000 0.98241  0.70676  0.96161  Biso   1.000  H 
  H105     1.0000 0.93595  0.22630  0.25000  Biso   1.000  H 
  H106     1.0000 0.06405  0.72630  0.25000  Biso   1.000  H 
  H107     1.0000 0.06405  0.77370  0.75000  Biso   1.000  H 
  H108     1.0000 0.93595  0.27370  0.75000  Biso   1.000  H 
  H109     1.0000 0.77861  0.25774  0.20871  Biso   1.000  H 
  H110     1.0000 0.22139  0.75774  0.29129  Biso   1.000  H 
  H111     1.0000 0.22139  0.74226  0.79129  Biso   1.000  H 
  H112     1.0000 0.77861  0.24226  0.70871  Biso   1.000  H 
  H113     1.0000 0.48332  0.34967  0.74665  Biso   1.000  H 
  H114     1.0000 0.51668  0.84967  0.75335  Biso   1.000  H 
  H115     1.0000 0.51668  0.65033  0.25335  Biso   1.000  H 
  H116     1.0000 0.48332  0.15033  0.24665  Biso   1.000  H 
