data_image0
_cell_length_a       21.037
_cell_length_b       21.037
_cell_length_c       21.037
_cell_angle_alpha    90
_cell_angle_beta     90
_cell_angle_gamma    90

_symmetry_space_group_name_H-M    "P 1"
_symmetry_int_tables_number       1

loop_
  _symmetry_equiv_pos_as_xyz
  'x, y, z'

loop_
  _atom_site_label
  _atom_site_occupancy
  _atom_site_fract_x
  _atom_site_fract_y
  _atom_site_fract_z
  _atom_site_thermal_displace_type
  _atom_site_B_iso_or_equiv
  _atom_site_type_symbol
  Cu1      1.0000 0.70123  0.81447  0.18553  Biso   1.000  Cu
  N1       1.0000 0.70030  0.74630  0.12220  Biso   1.000  N 
  C1       1.0000 0.66140  0.73140  0.07630  Biso   1.000  C 
  N2       1.0000 0.67910  0.67910  0.04790  Biso   1.000  N 
  C2       1.0000 0.73140  0.66140  0.07630  Biso   1.000  C 
  H1       1.0000 0.75540  0.62480  0.06510  Biso   1.000  H 
  N3       1.0000 0.74630  0.70030  0.12220  Biso   1.000  N 
  Cu2      1.0000 0.81447  0.70123  0.18553  Biso   1.000  Cu
  O1       1.0000 0.84700  0.62110  0.15300  Biso   1.000  O 
  C3       1.0000 0.82240  0.57040  0.17760  Biso   1.000  C 
  O2       1.0000 0.78250  0.56990  0.21750  Biso   1.000  O 
  C4       1.0000 0.84980  0.50990  0.15020  Biso   1.000  C 
  H2       1.0000 0.84250  0.50930  0.10370  Biso   1.000  H 
  H3       1.0000 0.89630  0.50930  0.15750  Biso   1.000  H 
  N4       1.0000 0.82090  0.45210  0.17910  Biso   1.000  N 
  C5       1.0000 0.83860  0.42370  0.23140  Biso   1.000  C 
  C6       1.0000 0.76860  0.42370  0.16140  Biso   1.000  C 
  H4       1.0000 0.74460  0.43490  0.12480  Biso   1.000  H 
  N5       1.0000 0.75370  0.37780  0.20030  Biso   1.000  N 
  Cu3      1.0000 0.68553  0.31447  0.20123  Biso   1.000  Cu
  N6       1.0000 0.62220  0.24630  0.20030  Biso   1.000  N 
  C7       1.0000 0.57630  0.23140  0.16140  Biso   1.000  C 
  N7       1.0000 0.54790  0.17910  0.17910  Biso   1.000  N 
  C8       1.0000 0.49010  0.15020  0.15020  Biso   1.000  C 
  H5       1.0000 0.49070  0.10370  0.15750  Biso   1.000  H 
  H6       1.0000 0.49070  0.15750  0.10370  Biso   1.000  H 
  C9       1.0000 0.42960  0.17760  0.17760  Biso   1.000  C 
  O3       1.0000 0.37890  0.15300  0.15300  Biso   1.000  O 
  Cu4      1.0000 0.29877  0.18553  0.18553  Biso   1.000  Cu
  O4       1.0000 0.22090  0.22090  0.22090  Biso   1.000  O 
  Cu5      1.0000 0.18553  0.29877  0.18553  Biso   1.000  Cu
  O5       1.0000 0.12070  0.23610  0.12070  Biso   1.000  O 
  H7       1.0000 0.14765  0.20885  0.09314  Biso   1.000  H 
  H8       1.0000 0.09314  0.20885  0.14765  Biso   1.000  H 
  H9       1.0000 0.09376  0.26396  0.09376  Biso   1.000  H 
  O6       1.0000 0.15300  0.37890  0.15300  Biso   1.000  O 
  C10      1.0000 0.17760  0.42960  0.17760  Biso   1.000  C 
  O7       1.0000 0.21750  0.43010  0.21750  Biso   1.000  O 
  C11      1.0000 0.15020  0.49010  0.15020  Biso   1.000  C 
  H10      1.0000 0.15750  0.49070  0.10370  Biso   1.000  H 
  H11      1.0000 0.10370  0.49070  0.15750  Biso   1.000  H 
  N8       1.0000 0.17910  0.54790  0.17910  Biso   1.000  N 
  C12      1.0000 0.16140  0.57630  0.23140  Biso   1.000  C 
  C13      1.0000 0.23140  0.57630  0.16140  Biso   1.000  C 
  H12      1.0000 0.25540  0.56510  0.12480  Biso   1.000  H 
  N9       1.0000 0.24630  0.62220  0.20030  Biso   1.000  N 
  Cu6      1.0000 0.31447  0.68553  0.20123  Biso   1.000  Cu
  O8       1.0000 0.34700  0.65300  0.12110  Biso   1.000  O 
  C14      1.0000 0.32240  0.67760  0.07040  Biso   1.000  C 
  O9       1.0000 0.28250  0.71750  0.06990  Biso   1.000  O 
  C15      1.0000 0.34980  0.65020  0.00990  Biso   1.000  C 
  H13      1.0000 0.39630  0.65750  0.00930  Biso   1.000  H 
  H14      1.0000 0.34250  0.60370  0.00930  Biso   1.000  H 
  N10      1.0000 0.32090  0.67910  0.95210  Biso   1.000  N 
  C16      1.0000 0.33860  0.73140  0.92370  Biso   1.000  C 
  C17      1.0000 0.26860  0.66140  0.92370  Biso   1.000  C 
  H15      1.0000 0.24460  0.62480  0.93490  Biso   1.000  H 
  N11      1.0000 0.25370  0.70030  0.87780  Biso   1.000  N 
  Cu7      1.0000 0.18553  0.70123  0.81447  Biso   1.000  Cu
  N12      1.0000 0.12220  0.70030  0.74630  Biso   1.000  N 
  N13      1.0000 0.12220  0.74630  0.70030  Biso   1.000  N 
  C18      1.0000 0.07630  0.73140  0.66140  Biso   1.000  C 
  N14      1.0000 0.04790  0.67910  0.67910  Biso   1.000  N 
  C19      1.0000 0.07630  0.66140  0.73140  Biso   1.000  C 
  H16      1.0000 0.06510  0.62480  0.75540  Biso   1.000  H 
  C20      1.0000 0.99010  0.65020  0.65020  Biso   1.000  C 
  H17      1.0000 0.99070  0.65750  0.60370  Biso   1.000  H 
  C21      1.0000 0.92960  0.67760  0.67760  Biso   1.000  C 
  O10      1.0000 0.87890  0.65300  0.65300  Biso   1.000  O 
  Cu8      1.0000 0.79877  0.68553  0.68553  Biso   1.000  Cu
  O11      1.0000 0.73610  0.62070  0.62070  Biso   1.000  O 
  H18      1.0000 0.70885  0.59314  0.64765  Biso   1.000  H 
  H19      1.0000 0.70885  0.64765  0.59314  Biso   1.000  H 
  H20      1.0000 0.76396  0.59376  0.59376  Biso   1.000  H 
  N15      1.0000 0.79970  0.62220  0.75370  Biso   1.000  N 
  N16      1.0000 0.75370  0.62220  0.79970  Biso   1.000  N 
  C22      1.0000 0.76860  0.57630  0.83860  Biso   1.000  C 
  N17      1.0000 0.82090  0.54790  0.82090  Biso   1.000  N 
  C23      1.0000 0.84980  0.49010  0.84980  Biso   1.000  C 
  H21      1.0000 0.84250  0.49070  0.89630  Biso   1.000  H 
  H22      1.0000 0.89630  0.49070  0.84250  Biso   1.000  H 
  C24      1.0000 0.82240  0.42960  0.82240  Biso   1.000  C 
  O12      1.0000 0.84700  0.37890  0.84700  Biso   1.000  O 
  Cu9      1.0000 0.81447  0.29877  0.81447  Biso   1.000  Cu
  N18      1.0000 0.87780  0.29970  0.74630  Biso   1.000  N 
  C25      1.0000 0.92370  0.33860  0.73140  Biso   1.000  C 
  N19      1.0000 0.95210  0.32090  0.67910  Biso   1.000  N 
  C26      1.0000 0.00990  0.34980  0.65020  Biso   1.000  C 
  C27      1.0000 0.07040  0.32240  0.67760  Biso   1.000  C 
  O13      1.0000 0.06990  0.28250  0.71750  Biso   1.000  O 
  O14      1.0000 0.12110  0.34700  0.65300  Biso   1.000  O 
  Cu10     1.0000 0.20123  0.31447  0.68553  Biso   1.000  Cu
  N20      1.0000 0.20030  0.24630  0.62220  Biso   1.000  N 
  C28      1.0000 0.16140  0.23140  0.57630  Biso   1.000  C 
  N21      1.0000 0.17910  0.17910  0.54790  Biso   1.000  N 
  C29      1.0000 0.15020  0.15020  0.49010  Biso   1.000  C 
  C30      1.0000 0.17760  0.17760  0.42960  Biso   1.000  C 
  O15      1.0000 0.21750  0.21750  0.43010  Biso   1.000  O 
  O16      1.0000 0.15300  0.15300  0.37890  Biso   1.000  O 
  Cu11     1.0000 0.18553  0.18553  0.29877  Biso   1.000  Cu
  O17      1.0000 0.12070  0.12070  0.23610  Biso   1.000  O 
  H23      1.0000 0.14765  0.09314  0.20885  Biso   1.000  H 
  H24      1.0000 0.09314  0.14765  0.20885  Biso   1.000  H 
  H25      1.0000 0.09376  0.09376  0.26396  Biso   1.000  H 
  N22      1.0000 0.12220  0.25370  0.29970  Biso   1.000  N 
  C31      1.0000 0.07630  0.26860  0.33860  Biso   1.000  C 
  N23      1.0000 0.04790  0.32090  0.32090  Biso   1.000  N 
  C32      1.0000 0.07630  0.33860  0.26860  Biso   1.000  C 
  H26      1.0000 0.06510  0.37520  0.24460  Biso   1.000  H 
  N24      1.0000 0.12220  0.29970  0.25370  Biso   1.000  N 
  C33      1.0000 0.99010  0.34980  0.34980  Biso   1.000  C 
  C34      1.0000 0.92960  0.32240  0.32240  Biso   1.000  C 
  O18      1.0000 0.93010  0.28250  0.28250  Biso   1.000  O 
  O19      1.0000 0.87890  0.34700  0.34700  Biso   1.000  O 
  Cu12     1.0000 0.79877  0.31447  0.31447  Biso   1.000  Cu
  O20      1.0000 0.72090  0.27910  0.27910  Biso   1.000  O 
  Cu13     1.0000 0.68553  0.20123  0.31447  Biso   1.000  Cu
  N25      1.0000 0.62220  0.20030  0.24630  Biso   1.000  N 
  C35      1.0000 0.57630  0.16140  0.23140  Biso   1.000  C 
  H27      1.0000 0.56510  0.12480  0.25540  Biso   1.000  H 
  O21      1.0000 0.65300  0.12110  0.34700  Biso   1.000  O 
  C36      1.0000 0.67760  0.07040  0.32240  Biso   1.000  C 
  O22      1.0000 0.71750  0.06990  0.28250  Biso   1.000  O 
  C37      1.0000 0.65020  0.00990  0.34980  Biso   1.000  C 
  H28      1.0000 0.60370  0.00930  0.34250  Biso   1.000  H 
  H29      1.0000 0.65750  0.00930  0.39630  Biso   1.000  H 
  N26      1.0000 0.67910  0.95210  0.32090  Biso   1.000  N 
  C38      1.0000 0.66140  0.92370  0.26860  Biso   1.000  C 
  C39      1.0000 0.73140  0.92370  0.33860  Biso   1.000  C 
  H30      1.0000 0.75540  0.93490  0.37520  Biso   1.000  H 
  N27      1.0000 0.74630  0.87780  0.29970  Biso   1.000  N 
  Cu14     1.0000 0.81447  0.81447  0.29877  Biso   1.000  Cu
  O23      1.0000 0.77910  0.77910  0.22090  Biso   1.000  O 
  N28      1.0000 0.87780  0.74630  0.29970  Biso   1.000  N 
  C40      1.0000 0.92370  0.73140  0.33860  Biso   1.000  C 
  N29      1.0000 0.95210  0.67910  0.32090  Biso   1.000  N 
  C41      1.0000 0.00990  0.65020  0.34980  Biso   1.000  C 
  H31      1.0000 0.00930  0.65750  0.39630  Biso   1.000  H 
  C42      1.0000 0.07040  0.67760  0.32240  Biso   1.000  C 
  O24      1.0000 0.06990  0.71750  0.28250  Biso   1.000  O 
  O25      1.0000 0.12110  0.65300  0.34700  Biso   1.000  O 
  Cu15     1.0000 0.20123  0.68553  0.31447  Biso   1.000  Cu
  N30      1.0000 0.20030  0.62220  0.24630  Biso   1.000  N 
  O26      1.0000 0.26390  0.62070  0.37930  Biso   1.000  O 
  H32      1.0000 0.23604  0.59376  0.40624  Biso   1.000  H 
  H33      1.0000 0.29115  0.59314  0.35235  Biso   1.000  H 
  H34      1.0000 0.29115  0.64765  0.40686  Biso   1.000  H 
  O27      1.0000 0.27910  0.72090  0.27910  Biso   1.000  O 
  Cu16     1.0000 0.31447  0.79877  0.31447  Biso   1.000  Cu
  N31      1.0000 0.24630  0.79970  0.37780  Biso   1.000  N 
  N32      1.0000 0.20030  0.75370  0.37780  Biso   1.000  N 
  C43      1.0000 0.16140  0.76860  0.42370  Biso   1.000  C 
  N33      1.0000 0.17910  0.82090  0.45210  Biso   1.000  N 
  C44      1.0000 0.15020  0.84980  0.50990  Biso   1.000  C 
  H35      1.0000 0.10370  0.84250  0.50930  Biso   1.000  H 
  C45      1.0000 0.17760  0.82240  0.57040  Biso   1.000  C 
  O28      1.0000 0.15300  0.84700  0.62110  Biso   1.000  O 
  Cu17     1.0000 0.18553  0.81447  0.70123  Biso   1.000  Cu
  O29      1.0000 0.12070  0.87930  0.76390  Biso   1.000  O 
  H36      1.0000 0.09376  0.90624  0.73604  Biso   1.000  H 
  H37      1.0000 0.14765  0.90686  0.79115  Biso   1.000  H 
  H38      1.0000 0.09314  0.85235  0.79115  Biso   1.000  H 
  O30      1.0000 0.22090  0.77910  0.77910  Biso   1.000  O 
  Cu18     1.0000 0.29877  0.81447  0.81447  Biso   1.000  Cu
  N34      1.0000 0.29970  0.74630  0.87780  Biso   1.000  N 
  N35      1.0000 0.29970  0.87780  0.74630  Biso   1.000  N 
  N36      1.0000 0.25370  0.87780  0.70030  Biso   1.000  N 
  C46      1.0000 0.26860  0.92370  0.66140  Biso   1.000  C 
  H39      1.0000 0.24460  0.93490  0.62480  Biso   1.000  H 
  N37      1.0000 0.32090  0.95210  0.67910  Biso   1.000  N 
  C47      1.0000 0.34980  0.00990  0.65020  Biso   1.000  C 
  C48      1.0000 0.32240  0.07040  0.67760  Biso   1.000  C 
  O31      1.0000 0.28250  0.06990  0.71750  Biso   1.000  O 
  O32      1.0000 0.34700  0.12110  0.65300  Biso   1.000  O 
  Cu19     1.0000 0.31447  0.20123  0.68553  Biso   1.000  Cu
  N38      1.0000 0.24630  0.20030  0.62220  Biso   1.000  N 
  C49      1.0000 0.23140  0.16140  0.57630  Biso   1.000  C 
  H40      1.0000 0.25540  0.12480  0.56510  Biso   1.000  H 
  O33      1.0000 0.37930  0.26390  0.62070  Biso   1.000  O 
  H41      1.0000 0.40624  0.23604  0.59376  Biso   1.000  H 
  H42      1.0000 0.40686  0.29115  0.64765  Biso   1.000  H 
  H43      1.0000 0.35235  0.29115  0.59314  Biso   1.000  H 
  O34      1.0000 0.27910  0.27910  0.72090  Biso   1.000  O 
  Cu20     1.0000 0.31447  0.31447  0.79877  Biso   1.000  Cu
  N39      1.0000 0.24630  0.37780  0.79970  Biso   1.000  N 
  C50      1.0000 0.23140  0.42370  0.83860  Biso   1.000  C 
  N40      1.0000 0.17910  0.45210  0.82090  Biso   1.000  N 
  C51      1.0000 0.15020  0.50990  0.84980  Biso   1.000  C 
  H44      1.0000 0.10370  0.50930  0.84250  Biso   1.000  H 
  C52      1.0000 0.17760  0.57040  0.82240  Biso   1.000  C 
  O35      1.0000 0.21750  0.56990  0.78250  Biso   1.000  O 
  O36      1.0000 0.15300  0.62110  0.84700  Biso   1.000  O 
  H45      1.0000 0.15750  0.50930  0.89630  Biso   1.000  H 
  C53      1.0000 0.16140  0.42370  0.76860  Biso   1.000  C 
  H46      1.0000 0.12480  0.43490  0.74460  Biso   1.000  H 
  N41      1.0000 0.20030  0.37780  0.75370  Biso   1.000  N 
  H47      1.0000 0.25540  0.43490  0.87520  Biso   1.000  H 
  N42      1.0000 0.37780  0.24630  0.79970  Biso   1.000  N 
  C54      1.0000 0.42370  0.23140  0.83860  Biso   1.000  C 
  N43      1.0000 0.45210  0.17910  0.82090  Biso   1.000  N 
  C55      1.0000 0.50990  0.15020  0.84980  Biso   1.000  C 
  H48      1.0000 0.50930  0.10370  0.84250  Biso   1.000  H 
  H49      1.0000 0.50930  0.15750  0.89630  Biso   1.000  H 
  C56      1.0000 0.57040  0.17760  0.82240  Biso   1.000  C 
  O37      1.0000 0.62110  0.15300  0.84700  Biso   1.000  O 
  Cu21     1.0000 0.70123  0.18553  0.81447  Biso   1.000  Cu
  N44      1.0000 0.70030  0.12220  0.74630  Biso   1.000  N 
  C57      1.0000 0.66140  0.07630  0.73140  Biso   1.000  C 
  N45      1.0000 0.67910  0.04790  0.67910  Biso   1.000  N 
  C58      1.0000 0.73140  0.07630  0.66140  Biso   1.000  C 
  H50      1.0000 0.75540  0.06510  0.62480  Biso   1.000  H 
  N46      1.0000 0.74630  0.12220  0.70030  Biso   1.000  N 
  Cu22     1.0000 0.81447  0.18553  0.70123  Biso   1.000  Cu
  O38      1.0000 0.84700  0.15300  0.62110  Biso   1.000  O 
  C59      1.0000 0.82240  0.17760  0.57040  Biso   1.000  C 
  O39      1.0000 0.78250  0.21750  0.56990  Biso   1.000  O 
  C60      1.0000 0.84980  0.15020  0.50990  Biso   1.000  C 
  H51      1.0000 0.84250  0.10370  0.50930  Biso   1.000  H 
  H52      1.0000 0.89630  0.15750  0.50930  Biso   1.000  H 
  N47      1.0000 0.82090  0.17910  0.45210  Biso   1.000  N 
  C61      1.0000 0.83860  0.23140  0.42370  Biso   1.000  C 
  C62      1.0000 0.76860  0.16140  0.42370  Biso   1.000  C 
  H53      1.0000 0.74460  0.12480  0.43490  Biso   1.000  H 
  N48      1.0000 0.75370  0.20030  0.37780  Biso   1.000  N 
  N49      1.0000 0.79970  0.24630  0.37780  Biso   1.000  N 
  H54      1.0000 0.87520  0.25540  0.43490  Biso   1.000  H 
  O40      1.0000 0.87930  0.12070  0.76390  Biso   1.000  O 
  H55      1.0000 0.90624  0.09376  0.73604  Biso   1.000  H 
  H56      1.0000 0.85235  0.09314  0.79115  Biso   1.000  H 
  H57      1.0000 0.90686  0.14765  0.79115  Biso   1.000  H 
  N50      1.0000 0.87780  0.25370  0.70030  Biso   1.000  N 
  C63      1.0000 0.92370  0.26860  0.66140  Biso   1.000  C 
  H58      1.0000 0.93490  0.24460  0.62480  Biso   1.000  H 
  O41      1.0000 0.77910  0.22090  0.77910  Biso   1.000  O 
  C64      1.0000 0.65020  0.99010  0.65020  Biso   1.000  C 
  C65      1.0000 0.67760  0.92960  0.67760  Biso   1.000  C 
  O42      1.0000 0.65300  0.87890  0.65300  Biso   1.000  O 
  Cu23     1.0000 0.68553  0.79877  0.68553  Biso   1.000  Cu
  O43      1.0000 0.62070  0.73610  0.62070  Biso   1.000  O 
  H59      1.0000 0.64765  0.70885  0.59314  Biso   1.000  H 
  H60      1.0000 0.59314  0.70885  0.64765  Biso   1.000  H 
  H61      1.0000 0.59376  0.76396  0.59376  Biso   1.000  H 
  N51      1.0000 0.62220  0.79970  0.75370  Biso   1.000  N 
  N52      1.0000 0.62220  0.75370  0.79970  Biso   1.000  N 
  C66      1.0000 0.57630  0.76860  0.83860  Biso   1.000  C 
  H62      1.0000 0.56510  0.74460  0.87520  Biso   1.000  H 
  N53      1.0000 0.54790  0.82090  0.82090  Biso   1.000  N 
  C67      1.0000 0.49010  0.84980  0.84980  Biso   1.000  C 
  H63      1.0000 0.49070  0.89630  0.84250  Biso   1.000  H 
  C68      1.0000 0.42960  0.82240  0.82240  Biso   1.000  C 
  O44      1.0000 0.43010  0.78250  0.78250  Biso   1.000  O 
  O45      1.0000 0.37890  0.84700  0.84700  Biso   1.000  O 
  H64      1.0000 0.49070  0.84250  0.89630  Biso   1.000  H 
  C69      1.0000 0.57630  0.83860  0.76860  Biso   1.000  C 
  H65      1.0000 0.56510  0.87520  0.74460  Biso   1.000  H 
  Cu24     1.0000 0.68553  0.68553  0.79877  Biso   1.000  Cu
  O46      1.0000 0.62070  0.62070  0.73610  Biso   1.000  O 
  H66      1.0000 0.59314  0.64765  0.70885  Biso   1.000  H 
  H67      1.0000 0.64765  0.59314  0.70885  Biso   1.000  H 
  H68      1.0000 0.59376  0.59376  0.76396  Biso   1.000  H 
  O47      1.0000 0.65300  0.65300  0.87890  Biso   1.000  O 
  C70      1.0000 0.67760  0.67760  0.92960  Biso   1.000  C 
  O48      1.0000 0.71750  0.71750  0.93010  Biso   1.000  O 
  C71      1.0000 0.65020  0.65020  0.99010  Biso   1.000  C 
  H69      1.0000 0.60370  0.65750  0.99070  Biso   1.000  H 
  H70      1.0000 0.65750  0.60370  0.99070  Biso   1.000  H 
  O49      1.0000 0.72090  0.72090  0.72090  Biso   1.000  O 
  N54      1.0000 0.75370  0.79970  0.62220  Biso   1.000  N 
  C72      1.0000 0.76860  0.83860  0.57630  Biso   1.000  C 
  N55      1.0000 0.82090  0.82090  0.54790  Biso   1.000  N 
  C73      1.0000 0.84980  0.84980  0.49010  Biso   1.000  C 
  C74      1.0000 0.82240  0.82240  0.42960  Biso   1.000  C 
  O50      1.0000 0.78250  0.78250  0.43010  Biso   1.000  O 
  O51      1.0000 0.84700  0.84700  0.37890  Biso   1.000  O 
  H71      1.0000 0.89630  0.84250  0.49070  Biso   1.000  H 
  H72      1.0000 0.84250  0.89630  0.49070  Biso   1.000  H 
  C75      1.0000 0.83860  0.76860  0.57630  Biso   1.000  C 
  H73      1.0000 0.87520  0.74460  0.56510  Biso   1.000  H 
  N56      1.0000 0.79970  0.75370  0.62220  Biso   1.000  N 
  H74      1.0000 0.74460  0.87520  0.56510  Biso   1.000  H 
  O52      1.0000 0.71750  0.93010  0.71750  Biso   1.000  O 
  H75      1.0000 0.65750  0.99070  0.60370  Biso   1.000  H 
  H76      1.0000 0.60370  0.99070  0.65750  Biso   1.000  H 
  H77      1.0000 0.62480  0.06510  0.75540  Biso   1.000  H 
  N57      1.0000 0.70030  0.25370  0.87780  Biso   1.000  N 
  C76      1.0000 0.66140  0.26860  0.92370  Biso   1.000  C 
  H78      1.0000 0.62480  0.24460  0.93490  Biso   1.000  H 
  N58      1.0000 0.67910  0.32090  0.95210  Biso   1.000  N 
  C77      1.0000 0.65020  0.34980  0.00990  Biso   1.000  C 
  C78      1.0000 0.67760  0.32240  0.07040  Biso   1.000  C 
  O53      1.0000 0.65300  0.34700  0.12110  Biso   1.000  O 
  O54      1.0000 0.71750  0.28250  0.06990  Biso   1.000  O 
  H79      1.0000 0.60370  0.34250  0.00930  Biso   1.000  H 
  H80      1.0000 0.65750  0.39630  0.00930  Biso   1.000  H 
  C79      1.0000 0.73140  0.33860  0.92370  Biso   1.000  C 
  H81      1.0000 0.75540  0.37520  0.93490  Biso   1.000  H 
  N59      1.0000 0.74630  0.29970  0.87780  Biso   1.000  N 
  O55      1.0000 0.76390  0.12070  0.87930  Biso   1.000  O 
  H82      1.0000 0.73604  0.09376  0.90624  Biso   1.000  H 
  H83      1.0000 0.79115  0.09314  0.85235  Biso   1.000  H 
  H84      1.0000 0.79115  0.14765  0.90686  Biso   1.000  H 
  O56      1.0000 0.56990  0.21750  0.78250  Biso   1.000  O 
  C80      1.0000 0.42370  0.16140  0.76860  Biso   1.000  C 
  H85      1.0000 0.43490  0.12480  0.74460  Biso   1.000  H 
  N60      1.0000 0.37780  0.20030  0.75370  Biso   1.000  N 
  H86      1.0000 0.43490  0.25540  0.87520  Biso   1.000  H 
  O57      1.0000 0.34700  0.34700  0.87890  Biso   1.000  O 
  C81      1.0000 0.32240  0.32240  0.92960  Biso   1.000  C 
  O58      1.0000 0.28250  0.28250  0.93010  Biso   1.000  O 
  C82      1.0000 0.34980  0.34980  0.99010  Biso   1.000  C 
  H87      1.0000 0.39630  0.34250  0.99070  Biso   1.000  H 
  H88      1.0000 0.34250  0.39630  0.99070  Biso   1.000  H 
  N61      1.0000 0.32090  0.32090  0.04790  Biso   1.000  N 
  C83      1.0000 0.26860  0.33860  0.07630  Biso   1.000  C 
  C84      1.0000 0.33860  0.26860  0.07630  Biso   1.000  C 
  H89      1.0000 0.37520  0.24460  0.06510  Biso   1.000  H 
  N62      1.0000 0.29970  0.25370  0.12220  Biso   1.000  N 
  N63      1.0000 0.25370  0.29970  0.12220  Biso   1.000  N 
  H90      1.0000 0.24460  0.37520  0.06510  Biso   1.000  H 
  O59      1.0000 0.37930  0.37930  0.73610  Biso   1.000  O 
  H91      1.0000 0.40686  0.35235  0.70885  Biso   1.000  H 
  H92      1.0000 0.35235  0.40686  0.70885  Biso   1.000  H 
  H93      1.0000 0.40624  0.40624  0.76396  Biso   1.000  H 
  H94      1.0000 0.39630  0.00930  0.65750  Biso   1.000  H 
  H95      1.0000 0.34250  0.00930  0.60370  Biso   1.000  H 
  C85      1.0000 0.33860  0.92370  0.73140  Biso   1.000  C 
  H96      1.0000 0.37520  0.93490  0.75540  Biso   1.000  H 
  O60      1.0000 0.23610  0.87930  0.87930  Biso   1.000  O 
  H97      1.0000 0.20885  0.90686  0.85235  Biso   1.000  H 
  H98      1.0000 0.20885  0.85235  0.90686  Biso   1.000  H 
  H99      1.0000 0.26396  0.90624  0.90624  Biso   1.000  H 
  O61      1.0000 0.21750  0.78250  0.56990  Biso   1.000  O 
  H100     1.0000 0.15750  0.89630  0.50930  Biso   1.000  H 
  C86      1.0000 0.23140  0.83860  0.42370  Biso   1.000  C 
  H101     1.0000 0.25540  0.87520  0.43490  Biso   1.000  H 
  H102     1.0000 0.12480  0.74460  0.43490  Biso   1.000  H 
  N64      1.0000 0.37780  0.79970  0.24630  Biso   1.000  N 
  N65      1.0000 0.37780  0.75370  0.20030  Biso   1.000  N 
  C87      1.0000 0.42370  0.76860  0.16140  Biso   1.000  C 
  N66      1.0000 0.45210  0.82090  0.17910  Biso   1.000  N 
  C88      1.0000 0.50990  0.84980  0.15020  Biso   1.000  C 
  C89      1.0000 0.57040  0.82240  0.17760  Biso   1.000  C 
  O62      1.0000 0.56990  0.78250  0.21750  Biso   1.000  O 
  O63      1.0000 0.62110  0.84700  0.15300  Biso   1.000  O 
  H103     1.0000 0.50930  0.84250  0.10370  Biso   1.000  H 
  H104     1.0000 0.50930  0.89630  0.15750  Biso   1.000  H 
  C90      1.0000 0.42370  0.83860  0.23140  Biso   1.000  C 
  H105     1.0000 0.43490  0.87520  0.25540  Biso   1.000  H 
  H106     1.0000 0.43490  0.74460  0.12480  Biso   1.000  H 
  O64      1.0000 0.34700  0.87890  0.34700  Biso   1.000  O 
  C91      1.0000 0.32240  0.92960  0.32240  Biso   1.000  C 
  O65      1.0000 0.28250  0.93010  0.28250  Biso   1.000  O 
  C92      1.0000 0.34980  0.99010  0.34980  Biso   1.000  C 
  H107     1.0000 0.39630  0.99070  0.34250  Biso   1.000  H 
  H108     1.0000 0.34250  0.99070  0.39630  Biso   1.000  H 
  N67      1.0000 0.32090  0.04790  0.32090  Biso   1.000  N 
  C93      1.0000 0.33860  0.07630  0.26860  Biso   1.000  C 
  H109     1.0000 0.37520  0.06510  0.24460  Biso   1.000  H 
  C94      1.0000 0.26860  0.07630  0.33860  Biso   1.000  C 
  H110     1.0000 0.24460  0.06510  0.37520  Biso   1.000  H 
  N68      1.0000 0.25370  0.12220  0.29970  Biso   1.000  N 
  N69      1.0000 0.29970  0.12220  0.25370  Biso   1.000  N 
  O66      1.0000 0.37930  0.73610  0.37930  Biso   1.000  O 
  H111     1.0000 0.40686  0.70885  0.35235  Biso   1.000  H 
  H112     1.0000 0.35235  0.70885  0.40686  Biso   1.000  H 
  H113     1.0000 0.40624  0.76396  0.40624  Biso   1.000  H 
  H114     1.0000 0.00930  0.60370  0.34250  Biso   1.000  H 
  C95      1.0000 0.92370  0.66140  0.26860  Biso   1.000  C 
  H115     1.0000 0.93490  0.62480  0.24460  Biso   1.000  H 
  N70      1.0000 0.87780  0.70030  0.25370  Biso   1.000  N 
  H116     1.0000 0.93490  0.75540  0.37520  Biso   1.000  H 
  O67      1.0000 0.87930  0.87930  0.23610  Biso   1.000  O 
  H117     1.0000 0.90686  0.85235  0.20885  Biso   1.000  H 
  H118     1.0000 0.85235  0.90686  0.20885  Biso   1.000  H 
  H119     1.0000 0.90624  0.90624  0.26396  Biso   1.000  H 
  N71      1.0000 0.70030  0.87780  0.25370  Biso   1.000  N 
  H120     1.0000 0.62480  0.93490  0.24460  Biso   1.000  H 
  O68      1.0000 0.62070  0.26390  0.37930  Biso   1.000  O 
  H121     1.0000 0.59376  0.23604  0.40624  Biso   1.000  H 
  H122     1.0000 0.59314  0.29115  0.35235  Biso   1.000  H 
  H123     1.0000 0.64765  0.29115  0.40686  Biso   1.000  H 
  N72      1.0000 0.79970  0.37780  0.24630  Biso   1.000  N 
  O69      1.0000 0.73610  0.37930  0.37930  Biso   1.000  O 
  H124     1.0000 0.70885  0.35235  0.40686  Biso   1.000  H 
  H125     1.0000 0.70885  0.40686  0.35235  Biso   1.000  H 
  H126     1.0000 0.76396  0.40624  0.40624  Biso   1.000  H 
  H127     1.0000 0.99070  0.39630  0.34250  Biso   1.000  H 
  H128     1.0000 0.99070  0.34250  0.39630  Biso   1.000  H 
  H129     1.0000 0.06510  0.24460  0.37520  Biso   1.000  H 
  H130     1.0000 0.15750  0.10370  0.49070  Biso   1.000  H 
  H131     1.0000 0.10370  0.15750  0.49070  Biso   1.000  H 
  H132     1.0000 0.12480  0.25540  0.56510  Biso   1.000  H 
  O70      1.0000 0.26390  0.37930  0.62070  Biso   1.000  O 
  H133     1.0000 0.23604  0.40624  0.59376  Biso   1.000  H 
  H134     1.0000 0.29115  0.40686  0.64765  Biso   1.000  H 
  H135     1.0000 0.29115  0.35235  0.59314  Biso   1.000  H 
  H136     1.0000 0.00930  0.39630  0.65750  Biso   1.000  H 
  H137     1.0000 0.00930  0.34250  0.60370  Biso   1.000  H 
  H138     1.0000 0.93490  0.37520  0.75540  Biso   1.000  H 
  O71      1.0000 0.87930  0.23610  0.87930  Biso   1.000  O 
  H139     1.0000 0.85235  0.20885  0.90686  Biso   1.000  H 
  H140     1.0000 0.90686  0.20885  0.85235  Biso   1.000  H 
  H141     1.0000 0.90624  0.26396  0.90624  Biso   1.000  H 
  O72      1.0000 0.78250  0.43010  0.78250  Biso   1.000  O 
  C96      1.0000 0.83860  0.57630  0.76860  Biso   1.000  C 
  H142     1.0000 0.87520  0.56510  0.74460  Biso   1.000  H 
  H143     1.0000 0.74460  0.56510  0.87520  Biso   1.000  H 
  O73      1.0000 0.93010  0.71750  0.71750  Biso   1.000  O 
  H144     1.0000 0.99070  0.60370  0.65750  Biso   1.000  H 
  H145     1.0000 0.06510  0.75540  0.62480  Biso   1.000  H 
  O74      1.0000 0.12070  0.76390  0.87930  Biso   1.000  O 
  H146     1.0000 0.09376  0.73604  0.90624  Biso   1.000  H 
  H147     1.0000 0.14765  0.79115  0.90686  Biso   1.000  H 
  H148     1.0000 0.09314  0.79115  0.85235  Biso   1.000  H 
  H149     1.0000 0.37520  0.75540  0.93490  Biso   1.000  H 
  O75      1.0000 0.37930  0.62070  0.26390  Biso   1.000  O 
  H150     1.0000 0.40624  0.59376  0.23604  Biso   1.000  H 
  H151     1.0000 0.40686  0.64765  0.29115  Biso   1.000  H 
  H152     1.0000 0.35235  0.59314  0.29115  Biso   1.000  H 
  H153     1.0000 0.12480  0.56510  0.25540  Biso   1.000  H 
  O76      1.0000 0.23610  0.12070  0.12070  Biso   1.000  O 
  H154     1.0000 0.20885  0.14765  0.09314  Biso   1.000  H 
  H155     1.0000 0.20885  0.09314  0.14765  Biso   1.000  H 
  H156     1.0000 0.26396  0.09376  0.09376  Biso   1.000  H 
  O77      1.0000 0.43010  0.21750  0.21750  Biso   1.000  O 
  H157     1.0000 0.56510  0.25540  0.12480  Biso   1.000  H 
  O78      1.0000 0.62070  0.37930  0.26390  Biso   1.000  O 
  H158     1.0000 0.59376  0.40624  0.23604  Biso   1.000  H 
  H159     1.0000 0.59314  0.35235  0.29115  Biso   1.000  H 
  H160     1.0000 0.64765  0.40686  0.29115  Biso   1.000  H 
  H161     1.0000 0.87520  0.43490  0.25540  Biso   1.000  H 
  O79      1.0000 0.87930  0.76390  0.12070  Biso   1.000  O 
  H162     1.0000 0.90624  0.73604  0.09376  Biso   1.000  H 
  H163     1.0000 0.90686  0.79115  0.14765  Biso   1.000  H 
  H164     1.0000 0.85235  0.79115  0.09314  Biso   1.000  H 
  H165     1.0000 0.62480  0.75540  0.06510  Biso   1.000  H 
  O80      1.0000 0.76390  0.87930  0.12070  Biso   1.000  O 
  H166     1.0000 0.73604  0.90624  0.09376  Biso   1.000  H 
  H167     1.0000 0.79115  0.90686  0.14765  Biso   1.000  H 
  H168     1.0000 0.79115  0.85235  0.09314  Biso   1.000  H 
