data_image0
_cell_length_a       8.6667
_cell_length_b       8.602
_cell_length_c       21.8779
_cell_angle_alpha    90
_cell_angle_beta     96.882
_cell_angle_gamma    90

_symmetry_space_group_name_H-M    "P 1"
_symmetry_int_tables_number       1

loop_
  _symmetry_equiv_pos_as_xyz
  'x, y, z'

loop_
  _atom_site_label
  _atom_site_occupancy
  _atom_site_fract_x
  _atom_site_fract_y
  _atom_site_fract_z
  _atom_site_thermal_displace_type
  _atom_site_B_iso_or_equiv
  _atom_site_type_symbol
  Ag1      1.0000 0.35275  0.91895  0.30259  Biso   1.000  Ag
  O1       1.0000 0.45100  0.66290  0.24705  Biso   1.000  O 
  N1       1.0000 0.53450  0.62810  0.29532  Biso   1.000  N 
  O2       1.0000 0.53380  0.71060  0.34262  Biso   1.000  O 
  O3       1.0000 0.61880  0.50930  0.29716  Biso   1.000  O 
  Ag2      1.0000 0.64725  0.41895  0.19741  Biso   1.000  Ag
  O4       1.0000 0.46620  0.21060  0.15738  Biso   1.000  O 
  N2       1.0000 0.46550  0.12810  0.20468  Biso   1.000  N 
  O5       1.0000 0.54900  0.16290  0.25295  Biso   1.000  O 
  O6       1.0000 0.38120  0.00930  0.20284  Biso   1.000  O 
  N3       1.0000 0.88710  0.40770  0.15853  Biso   1.000  N 
  C1       1.0000 0.89990  0.50300  0.11118  Biso   1.000  C 
  C2       1.0000 0.76160  0.58640  0.08180  Biso   1.000  C 
  C3       1.0000 0.76700  0.66900  0.02748  Biso   1.000  C 
  H1       1.0000 0.86030  0.67410  0.00880  Biso   1.000  H 
  C4       1.0000 0.63350  0.74390  0.00115  Biso   1.000  C 
  C5       1.0000 0.50150  0.73590  0.03041  Biso   1.000  C 
  H2       1.0000 0.40880  0.78680  0.01350  Biso   1.000  H 
  C6       1.0000 0.50570  0.65340  0.08440  Biso   1.000  C 
  H3       1.0000 0.41420  0.64930  0.10430  Biso   1.000  H 
  N4       1.0000 0.63260  0.57850  0.11041  Biso   1.000  N 
  H4       1.0000 0.63320  0.79960  0.96360  Biso   1.000  H 
  C7       1.0000 0.05270  0.50490  0.09616  Biso   1.000  C 
  C8       1.0000 0.13290  0.40410  0.13705  Biso   1.000  C 
  H5       1.0000 0.24010  0.37880  0.13930  Biso   1.000  H 
  N5       1.0000 0.03080  0.34760  0.17348  Biso   1.000  N 
  C9       1.0000 0.05980  0.24090  0.22592  Biso   1.000  C 
  H6       1.0000 0.15650  0.18180  0.22260  Biso   1.000  H 
  C10      1.0000 0.07510  0.32820  0.28634  Biso   1.000  C 
  C11      1.0000 0.21690  0.39640  0.30908  Biso   1.000  C 
  H7       1.0000 0.30550  0.38190  0.28800  Biso   1.000  H 
  C12      1.0000 0.22800  0.48500  0.36234  Biso   1.000  C 
  H8       1.0000 0.32380  0.53240  0.37780  Biso   1.000  H 
  C13      1.0000 0.09660  0.50390  0.39315  Biso   1.000  C 
  C14      1.0000 0.10740  0.60080  0.44727  Biso   1.000  C 
  N6       1.0000 0.11780  0.67970  0.49005  Biso   1.000  N 
  C15      1.0000 0.95610  0.43360  0.37145  Biso   1.000  C 
  H9       1.0000 0.86790  0.44590  0.39290  Biso   1.000  H 
  C16      1.0000 0.94660  0.34540  0.31803  Biso   1.000  C 
  H10      1.0000 0.85130  0.29630  0.30300  Biso   1.000  H 
  H11      1.0000 0.97310  0.16570  0.22490  Biso   1.000  H 
  H12      1.0000 0.09210  0.56330  0.06460  Biso   1.000  H 
  N7       1.0000 0.11290  0.90770  0.34147  Biso   1.000  N 
  N8       1.0000 0.96920  0.84760  0.32652  Biso   1.000  N 
  C17      1.0000 0.94020  0.74090  0.27408  Biso   1.000  C 
  C18      1.0000 0.92490  0.82820  0.21366  Biso   1.000  C 
  C19      1.0000 0.78310  0.89640  0.19092  Biso   1.000  C 
  H13      1.0000 0.69450  0.88190  0.21200  Biso   1.000  H 
  C20      1.0000 0.77200  0.98500  0.13766  Biso   1.000  C 
  C21      1.0000 0.90340  0.00390  0.10685  Biso   1.000  C 
  C22      1.0000 0.89260  0.10080  0.05273  Biso   1.000  C 
  N9       1.0000 0.88220  0.17970  0.00995  Biso   1.000  N 
  C23      1.0000 0.04390  0.93360  0.12855  Biso   1.000  C 
  H14      1.0000 0.13210  0.94590  0.10710  Biso   1.000  H 
  C24      1.0000 0.05340  0.84540  0.18197  Biso   1.000  C 
  H15      1.0000 0.14870  0.79630  0.19700  Biso   1.000  H 
  H16      1.0000 0.67620  0.03240  0.12220  Biso   1.000  H 
  H17      1.0000 0.84350  0.68180  0.27740  Biso   1.000  H 
  H18      1.0000 0.02690  0.66570  0.27510  Biso   1.000  H 
  C25      1.0000 0.86710  0.90410  0.36295  Biso   1.000  C 
  H19      1.0000 0.75990  0.87880  0.36070  Biso   1.000  H 
  C26      1.0000 0.94730  0.00490  0.40384  Biso   1.000  C 
  H20      1.0000 0.90790  0.06330  0.43540  Biso   1.000  H 
  C27      1.0000 0.10010  0.00300  0.38882  Biso   1.000  C 
  C28      1.0000 0.23840  0.08640  0.41820  Biso   1.000  C 
  C29      1.0000 0.23300  0.16900  0.47252  Biso   1.000  C 
  C30      1.0000 0.36650  0.24390  0.49885  Biso   1.000  C 
  C31      1.0000 0.49850  0.23590  0.46959  Biso   1.000  C 
  C32      1.0000 0.49430  0.15340  0.41560  Biso   1.000  C 
  H21      1.0000 0.58580  0.14930  0.39570  Biso   1.000  H 
  N10      1.0000 0.36740  0.07850  0.38959  Biso   1.000  N 
  H22      1.0000 0.59120  0.28680  0.48650  Biso   1.000  H 
  H23      1.0000 0.36680  0.29960  0.53640  Biso   1.000  H 
  H24      1.0000 0.13970  0.17410  0.49120  Biso   1.000  H 
