data_image0
_cell_length_a       23.505
_cell_length_b       13.044
_cell_length_c       21.936
_cell_angle_alpha    90
_cell_angle_beta     115.33
_cell_angle_gamma    90

_symmetry_space_group_name_H-M    "P 1"
_symmetry_int_tables_number       1

loop_
  _symmetry_equiv_pos_as_xyz
  'x, y, z'

loop_
  _atom_site_label
  _atom_site_occupancy
  _atom_site_fract_x
  _atom_site_fract_y
  _atom_site_fract_z
  _atom_site_thermal_displace_type
  _atom_site_B_iso_or_equiv
  _atom_site_type_symbol
  Rh1      1.0000 0.00745  0.51960  0.19154  Biso   1.000  Rh
  N1       1.0000 0.09460  0.46930  0.24250  Biso   1.000  N 
  C1       1.0000 0.11240  0.37010  0.25700  Biso   1.000  C 
  H1       1.0000 0.08030  0.31940  0.24350  Biso   1.000  H 
  C2       1.0000 0.17290  0.33900  0.28940  Biso   1.000  C 
  H2       1.0000 0.18270  0.26790  0.29800  Biso   1.000  H 
  C3       1.0000 0.22100  0.41200  0.31010  Biso   1.000  C 
  H3       1.0000 0.26410  0.39340  0.33230  Biso   1.000  H 
  C4       1.0000 0.20270  0.51370  0.29680  Biso   1.000  C 
  H4       1.0000 0.23430  0.56520  0.31190  Biso   1.000  H 
  C5       1.0000 0.14020  0.54340  0.26230  Biso   1.000  C 
  C6       1.0000 0.11830  0.64410  0.24620  Biso   1.000  C 
  N2       1.0000 0.05410  0.65250  0.21360  Biso   1.000  N 
  C7       1.0000 0.02780  0.74720  0.19610  Biso   1.000  C 
  C8       1.0000 0.06280  0.83250  0.20550  Biso   1.000  C 
  C9       1.0000 0.12810  0.82500  0.23660  Biso   1.000  C 
  H5       1.0000 0.15360  0.88390  0.24310  Biso   1.000  H 
  C10      1.0000 0.15490  0.73020  0.25790  Biso   1.000  C 
  H6       1.0000 0.19940  0.72430  0.28100  Biso   1.000  H 
  H7       1.0000 0.04310  0.89720  0.19100  Biso   1.000  H 
  H8       1.0000 0.98320  0.75330  0.17660  Biso   1.000  H 
  Rh2      1.0000 0.00183  0.50971  0.06714  Biso   1.000  Rh
  N3       1.0000 0.01900  0.65400  0.05590  Biso   1.000  N 
  C11      1.0000 0.07890  0.67990  0.07160  Biso   1.000  C 
  C12      1.0000 0.12280  0.59500  0.09770  Biso   1.000  C 
  C13      1.0000 0.18730  0.59840  0.11960  Biso   1.000  C 
  H9       1.0000 0.20690  0.66240  0.12040  Biso   1.000  H 
  C14      1.0000 0.22390  0.51200  0.14010  Biso   1.000  C 
  C15      1.0000 0.19560  0.41900  0.13660  Biso   1.000  C 
  C16      1.0000 0.13030  0.42000  0.11700  Biso   1.000  C 
  H10      1.0000 0.11060  0.35670  0.11810  Biso   1.000  H 
  N4       1.0000 0.09430  0.50320  0.09710  Biso   1.000  N 
  H11      1.0000 0.21900  0.35740  0.14700  Biso   1.000  H 
  H12      1.0000 0.26840  0.51700  0.15660  Biso   1.000  H 
  C17      1.0000 0.09710  0.77900  0.06670  Biso   1.000  C 
  H13      1.0000 0.14020  0.79780  0.08300  Biso   1.000  H 
  C18      1.0000 0.04890  0.85160  0.03650  Biso   1.000  C 
  H14      1.0000 0.05860  0.92050  0.03060  Biso   1.000  H 
  C19      1.0000 0.99080  0.82310  0.01670  Biso   1.000  C 
  C20      1.0000 0.97430  0.72860  0.02740  Biso   1.000  C 
  H15      1.0000 0.93130  0.71320  0.01500  Biso   1.000  H 
  H16      1.0000 0.95840  0.87140  0.99370  Biso   1.000  H 
  Rh3      1.0000 0.99817  0.49029  0.93286  Biso   1.000  Rh
  N5       1.0000 0.90570  0.49680  0.90290  Biso   1.000  N 
  C21      1.0000 0.87720  0.40500  0.90230  Biso   1.000  C 
  C22      1.0000 0.81270  0.40160  0.88040  Biso   1.000  C 
  C23      1.0000 0.77610  0.48800  0.85990  Biso   1.000  C 
  H17      1.0000 0.73160  0.48300  0.84340  Biso   1.000  H 
  C24      1.0000 0.80440  0.58100  0.86340  Biso   1.000  C 
  C25      1.0000 0.86970  0.58000  0.88300  Biso   1.000  C 
  H18      1.0000 0.88940  0.64330  0.88190  Biso   1.000  H 
  H19      1.0000 0.78100  0.64260  0.85300  Biso   1.000  H 
  H20      1.0000 0.79310  0.33760  0.87960  Biso   1.000  H 
  C26      1.0000 0.92110  0.32010  0.92840  Biso   1.000  C 
  N6       1.0000 0.98100  0.34600  0.94410  Biso   1.000  N 
  C27      1.0000 0.02570  0.27140  0.97260  Biso   1.000  C 
  C28      1.0000 0.00920  0.17690  0.98330  Biso   1.000  C 
  H21      1.0000 0.04160  0.12860  0.00630  Biso   1.000  H 
  C29      1.0000 0.95110  0.14840  0.96350  Biso   1.000  C 
  H22      1.0000 0.94140  0.07950  0.96940  Biso   1.000  H 
  C30      1.0000 0.90290  0.22100  0.93330  Biso   1.000  C 
  H23      1.0000 0.85980  0.20220  0.91700  Biso   1.000  H 
  H24      1.0000 0.06870  0.28680  0.98500  Biso   1.000  H 
  O1       1.0000 0.09370  0.47260  0.96210  Biso   1.000  O 
  C31      1.0000 0.11300  0.43770  0.92140  Biso   1.000  C 
  H25      1.0000 0.15680  0.42310  0.93900  Biso   1.000  H 
  O2       1.0000 0.08110  0.41940  0.85940  Biso   1.000  O 
  Rh4      1.0000 0.99255  0.48040  0.80846  Biso   1.000  Rh
  N7       1.0000 0.94590  0.34750  0.78640  Biso   1.000  N 
  C32      1.0000 0.88170  0.35590  0.75380  Biso   1.000  C 
  C33      1.0000 0.85980  0.45660  0.73770  Biso   1.000  C 
  C34      1.0000 0.79730  0.48630  0.70320  Biso   1.000  C 
  H26      1.0000 0.76570  0.43480  0.68810  Biso   1.000  H 
  C35      1.0000 0.77900  0.58800  0.68990  Biso   1.000  C 
  H27      1.0000 0.73590  0.60660  0.66770  Biso   1.000  H 
  C36      1.0000 0.82710  0.66100  0.71060  Biso   1.000  C 
  H28      1.0000 0.81730  0.73210  0.70200  Biso   1.000  H 
  C37      1.0000 0.88760  0.62990  0.74300  Biso   1.000  C 
  H29      1.0000 0.91970  0.68060  0.75650  Biso   1.000  H 
  N8       1.0000 0.90540  0.53070  0.75750  Biso   1.000  N 
  C38      1.0000 0.84510  0.26980  0.74210  Biso   1.000  C 
  H30      1.0000 0.80060  0.27570  0.71900  Biso   1.000  H 
  C39      1.0000 0.87190  0.17500  0.76340  Biso   1.000  C 
  H31      1.0000 0.84640  0.11610  0.75690  Biso   1.000  H 
  C40      1.0000 0.93720  0.16750  0.79450  Biso   1.000  C 
  H32      1.0000 0.95690  0.10280  0.80900  Biso   1.000  H 
  C41      1.0000 0.97220  0.25280  0.80390  Biso   1.000  C 
  H33      1.0000 0.01680  0.24670  0.82340  Biso   1.000  H 
  Rh5      1.0000 0.00745  0.48040  0.69154  Biso   1.000  Rh
  Rh6      1.0000 0.00183  0.49029  0.56714  Biso   1.000  Rh
  N9       1.0000 0.01900  0.34600  0.55590  Biso   1.000  N 
  C42      1.0000 0.07890  0.32010  0.57160  Biso   1.000  C 
  C43      1.0000 0.12280  0.40500  0.59770  Biso   1.000  C 
  C44      1.0000 0.18730  0.40160  0.61960  Biso   1.000  C 
  C45      1.0000 0.22390  0.48800  0.64010  Biso   1.000  C 
  C46      1.0000 0.19560  0.58100  0.63660  Biso   1.000  C 
  C47      1.0000 0.13030  0.58000  0.61700  Biso   1.000  C 
  H34      1.0000 0.11060  0.64330  0.61810  Biso   1.000  H 
  N10      1.0000 0.09430  0.49680  0.59710  Biso   1.000  N 
  H35      1.0000 0.21900  0.64260  0.64700  Biso   1.000  H 
  H36      1.0000 0.26840  0.48300  0.65660  Biso   1.000  H 
  H37      1.0000 0.20690  0.33760  0.62040  Biso   1.000  H 
  C48      1.0000 0.09710  0.22100  0.56670  Biso   1.000  C 
  H38      1.0000 0.14020  0.20220  0.58300  Biso   1.000  H 
  C49      1.0000 0.04890  0.14840  0.53650  Biso   1.000  C 
  H39      1.0000 0.05860  0.07950  0.53060  Biso   1.000  H 
  C50      1.0000 0.99080  0.17690  0.51670  Biso   1.000  C 
  H40      1.0000 0.95840  0.12860  0.49370  Biso   1.000  H 
  C51      1.0000 0.97430  0.27140  0.52740  Biso   1.000  C 
  H41      1.0000 0.93130  0.28680  0.51500  Biso   1.000  H 
  Rh7      1.0000 0.99817  0.50971  0.43286  Biso   1.000  Rh
  N11      1.0000 0.90570  0.50320  0.40290  Biso   1.000  N 
  C52      1.0000 0.86970  0.42000  0.38300  Biso   1.000  C 
  H42      1.0000 0.88940  0.35670  0.38190  Biso   1.000  H 
  C53      1.0000 0.80440  0.41900  0.36340  Biso   1.000  C 
  H43      1.0000 0.78100  0.35740  0.35300  Biso   1.000  H 
  C54      1.0000 0.77610  0.51200  0.35990  Biso   1.000  C 
  H44      1.0000 0.73160  0.51700  0.34340  Biso   1.000  H 
  C55      1.0000 0.81270  0.59840  0.38040  Biso   1.000  C 
  H45      1.0000 0.79310  0.66240  0.37960  Biso   1.000  H 
  C56      1.0000 0.87720  0.59500  0.40230  Biso   1.000  C 
  C57      1.0000 0.92110  0.67990  0.42840  Biso   1.000  C 
  N12      1.0000 0.98100  0.65400  0.44410  Biso   1.000  N 
  C58      1.0000 0.02570  0.72860  0.47260  Biso   1.000  C 
  C59      1.0000 0.00920  0.82310  0.48330  Biso   1.000  C 
  H46      1.0000 0.04160  0.87140  0.50630  Biso   1.000  H 
  C60      1.0000 0.95110  0.85160  0.46350  Biso   1.000  C 
  H47      1.0000 0.94140  0.92050  0.46940  Biso   1.000  H 
  C61      1.0000 0.90290  0.77900  0.43330  Biso   1.000  C 
  H48      1.0000 0.85980  0.79780  0.41700  Biso   1.000  H 
  H49      1.0000 0.06870  0.71320  0.48500  Biso   1.000  H 
  O3       1.0000 0.01330  0.35610  0.42090  Biso   1.000  O 
  C62      1.0000 0.02920  0.32480  0.37670  Biso   1.000  C 
  H50      1.0000 0.03960  0.25420  0.37850  Biso   1.000  H 
  O4       1.0000 0.03310  0.37650  0.32950  Biso   1.000  O 
  Rh8      1.0000 0.99255  0.51960  0.30846  Biso   1.000  Rh
  N13      1.0000 0.90540  0.46930  0.25750  Biso   1.000  N 
  C63      1.0000 0.88760  0.37010  0.24300  Biso   1.000  C 
  H51      1.0000 0.91970  0.31940  0.25650  Biso   1.000  H 
  C64      1.0000 0.82710  0.33900  0.21060  Biso   1.000  C 
  H52      1.0000 0.81730  0.26790  0.20200  Biso   1.000  H 
  C65      1.0000 0.77900  0.41200  0.18990  Biso   1.000  C 
  H53      1.0000 0.73590  0.39340  0.16770  Biso   1.000  H 
  C66      1.0000 0.79730  0.51370  0.20320  Biso   1.000  C 
  H54      1.0000 0.76570  0.56520  0.18810  Biso   1.000  H 
  C67      1.0000 0.85980  0.54340  0.23770  Biso   1.000  C 
  C68      1.0000 0.88170  0.64410  0.25380  Biso   1.000  C 
  N14      1.0000 0.94590  0.65250  0.28640  Biso   1.000  N 
  C69      1.0000 0.97220  0.74720  0.30390  Biso   1.000  C 
  C70      1.0000 0.93720  0.83250  0.29450  Biso   1.000  C 
  C71      1.0000 0.87190  0.82500  0.26340  Biso   1.000  C 
  H55      1.0000 0.84640  0.88390  0.25690  Biso   1.000  H 
  C72      1.0000 0.84510  0.73020  0.24210  Biso   1.000  C 
  H56      1.0000 0.80060  0.72430  0.21900  Biso   1.000  H 
  H57      1.0000 0.95690  0.89720  0.30900  Biso   1.000  H 
  H58      1.0000 0.01680  0.75330  0.32340  Biso   1.000  H 
  O5       1.0000 0.08110  0.58060  0.35940  Biso   1.000  O 
  C73      1.0000 0.11300  0.56230  0.42140  Biso   1.000  C 
  H59      1.0000 0.15680  0.57690  0.43900  Biso   1.000  H 
  O6       1.0000 0.09370  0.52740  0.46210  Biso   1.000  O 
  O7       1.0000 0.90630  0.47260  0.53790  Biso   1.000  O 
  C74      1.0000 0.88700  0.43770  0.57860  Biso   1.000  C 
  H60      1.0000 0.84320  0.42310  0.56100  Biso   1.000  H 
  O8       1.0000 0.91890  0.41940  0.64060  Biso   1.000  O 
  O9       1.0000 0.98670  0.64390  0.57910  Biso   1.000  O 
  C75      1.0000 0.97080  0.67520  0.62330  Biso   1.000  C 
  H61      1.0000 0.96040  0.74580  0.62150  Biso   1.000  H 
  O10      1.0000 0.96690  0.62350  0.67050  Biso   1.000  O 
  N15      1.0000 0.09460  0.53070  0.74250  Biso   1.000  N 
  C76      1.0000 0.14020  0.45660  0.76230  Biso   1.000  C 
  C77      1.0000 0.20270  0.48630  0.79680  Biso   1.000  C 
  H62      1.0000 0.23430  0.43480  0.81190  Biso   1.000  H 
  C78      1.0000 0.22100  0.58800  0.81010  Biso   1.000  C 
  C79      1.0000 0.17290  0.66100  0.78940  Biso   1.000  C 
  C80      1.0000 0.11240  0.62990  0.75700  Biso   1.000  C 
  H63      1.0000 0.08030  0.68060  0.74350  Biso   1.000  H 
  H64      1.0000 0.18270  0.73210  0.79800  Biso   1.000  H 
  H65      1.0000 0.26410  0.60660  0.83230  Biso   1.000  H 
  C81      1.0000 0.11830  0.35590  0.74620  Biso   1.000  C 
  N16      1.0000 0.05410  0.34750  0.71360  Biso   1.000  N 
  C82      1.0000 0.02780  0.25280  0.69610  Biso   1.000  C 
  C83      1.0000 0.06280  0.16750  0.70550  Biso   1.000  C 
  H66      1.0000 0.04310  0.10280  0.69100  Biso   1.000  H 
  C84      1.0000 0.12810  0.17500  0.73660  Biso   1.000  C 
  C85      1.0000 0.15490  0.26980  0.75790  Biso   1.000  C 
  H67      1.0000 0.19940  0.27570  0.78100  Biso   1.000  H 
  H68      1.0000 0.15360  0.11610  0.74310  Biso   1.000  H 
  H69      1.0000 0.98320  0.24670  0.67660  Biso   1.000  H 
  O11      1.0000 0.03310  0.62350  0.82950  Biso   1.000  O 
  C86      1.0000 0.02920  0.67520  0.87670  Biso   1.000  C 
  H70      1.0000 0.03960  0.74580  0.87850  Biso   1.000  H 
  O12      1.0000 0.01330  0.64390  0.92090  Biso   1.000  O 
  O13      1.0000 0.90630  0.52740  0.03790  Biso   1.000  O 
  C87      1.0000 0.88700  0.56230  0.07860  Biso   1.000  C 
  H71      1.0000 0.84320  0.57690  0.06100  Biso   1.000  H 
  O14      1.0000 0.91890  0.58060  0.14060  Biso   1.000  O 
  O15      1.0000 0.98670  0.35610  0.07910  Biso   1.000  O 
  C88      1.0000 0.97080  0.32480  0.12330  Biso   1.000  C 
  H72      1.0000 0.96040  0.25420  0.12150  Biso   1.000  H 
  O16      1.0000 0.96690  0.37650  0.17050  Biso   1.000  O 
