data_image0
_cell_length_a       14.3832
_cell_length_b       10.4548
_cell_length_c       23.3057
_cell_angle_alpha    90
_cell_angle_beta     107.348
_cell_angle_gamma    90

_symmetry_space_group_name_H-M    "P 1"
_symmetry_int_tables_number       1

loop_
  _symmetry_equiv_pos_as_xyz
  'x, y, z'

loop_
  _atom_site_label
  _atom_site_occupancy
  _atom_site_fract_x
  _atom_site_fract_y
  _atom_site_fract_z
  _atom_site_thermal_displace_type
  _atom_site_B_iso_or_equiv
  _atom_site_type_symbol
  Yb1      1.0000 0.15208  0.06783  0.22751  Biso   1.000  Yb
  C1       1.0000 0.17570  0.31340  0.18890  Biso   1.000  C 
  O1       1.0000 0.18630  0.22120  0.15730  Biso   1.000  O 
  O2       1.0000 0.15240  0.29470  0.23720  Biso   1.000  O 
  C2       1.0000 0.19250  0.44850  0.17300  Biso   1.000  C 
  C3       1.0000 0.18910  0.54810  0.21210  Biso   1.000  C 
  C4       1.0000 0.19940  0.67210  0.19600  Biso   1.000  C 
  H1       1.0000 0.19620  0.73810  0.22210  Biso   1.000  H 
  C5       1.0000 0.21440  0.70080  0.14160  Biso   1.000  C 
  P1       1.0000 0.22810  0.86460  0.12284  Biso   1.000  P 
  C6       1.0000 0.18920  0.87420  0.04290  Biso   1.000  C 
  C7       1.0000 0.09010  0.87230  0.01210  Biso   1.000  C 
  H2       1.0000 0.04530  0.86860  0.03370  Biso   1.000  H 
  C8       1.0000 0.05700  0.87580  0.95000  Biso   1.000  C 
  H3       1.0000 0.99050  0.87200  0.93020  Biso   1.000  H 
  C9       1.0000 0.12290  0.88520  0.91740  Biso   1.000  C 
  C10      1.0000 0.08830  0.88790  0.84990  Biso   1.000  C 
  O3       1.0000 0.15210  0.89780  0.82330  Biso   1.000  O 
  Yb2      1.0000 0.15208  0.93217  0.72751  Biso   1.000  Yb
  O4       1.0000 0.18630  0.77880  0.65730  Biso   1.000  O 
  C11      1.0000 0.17570  0.68660  0.68890  Biso   1.000  C 
  O5       1.0000 0.15240  0.70530  0.73720  Biso   1.000  O 
  C12      1.0000 0.19250  0.55150  0.67300  Biso   1.000  C 
  C13      1.0000 0.18910  0.45190  0.71210  Biso   1.000  C 
  C14      1.0000 0.19940  0.32790  0.69600  Biso   1.000  C 
  H4       1.0000 0.19620  0.26190  0.72210  Biso   1.000  H 
  C15      1.0000 0.21440  0.29920  0.64160  Biso   1.000  C 
  P2       1.0000 0.22810  0.13540  0.62284  Biso   1.000  P 
  C16      1.0000 0.18920  0.12580  0.54290  Biso   1.000  C 
  C17      1.0000 0.09010  0.12770  0.51210  Biso   1.000  C 
  H5       1.0000 0.04530  0.13140  0.53370  Biso   1.000  H 
  C18      1.0000 0.05700  0.12420  0.45000  Biso   1.000  C 
  H6       1.0000 0.99050  0.12800  0.43020  Biso   1.000  H 
  C19      1.0000 0.12290  0.11480  0.41740  Biso   1.000  C 
  C20      1.0000 0.08830  0.11210  0.34990  Biso   1.000  C 
  O6       1.0000 0.15210  0.10220  0.32330  Biso   1.000  O 
  O7       1.0000 0.99890  0.12030  0.32380  Biso   1.000  O 
  Yb3      1.0000 0.84792  0.06783  0.27249  Biso   1.000  Yb
  O8       1.0000 0.84790  0.10220  0.17670  Biso   1.000  O 
  C21      1.0000 0.91170  0.11210  0.15010  Biso   1.000  C 
  C22      1.0000 0.87710  0.11480  0.08260  Biso   1.000  C 
  C23      1.0000 0.94300  0.12420  0.05000  Biso   1.000  C 
  C24      1.0000 0.90990  0.12770  0.98790  Biso   1.000  C 
  H7       1.0000 0.95470  0.13140  0.96630  Biso   1.000  H 
  C25      1.0000 0.81080  0.12580  0.95710  Biso   1.000  C 
  P3       1.0000 0.77190  0.13540  0.87716  Biso   1.000  P 
  C26      1.0000 0.78560  0.29920  0.85840  Biso   1.000  C 
  C27      1.0000 0.80060  0.32790  0.80400  Biso   1.000  C 
  H8       1.0000 0.80380  0.26190  0.77790  Biso   1.000  H 
  C28      1.0000 0.81090  0.45190  0.78790  Biso   1.000  C 
  H9       1.0000 0.82020  0.46960  0.75090  Biso   1.000  H 
  C29      1.0000 0.80750  0.55150  0.82700  Biso   1.000  C 
  C30      1.0000 0.82430  0.68660  0.81110  Biso   1.000  C 
  O9       1.0000 0.84760  0.70530  0.76280  Biso   1.000  O 
  Yb4      1.0000 0.84792  0.93217  0.77249  Biso   1.000  Yb
  O10      1.0000 0.67910  0.87880  0.72930  Biso   1.000  O 
  C31      1.0000 0.65700  0.99040  0.71330  Biso   1.000  C 
  C32      1.0000 0.55230  0.02430  0.68770  Biso   1.000  C 
  C33      1.0000 0.52550  0.15490  0.68090  Biso   1.000  C 
  C34      1.0000 0.42920  0.19010  0.66160  Biso   1.000  C 
  H10      1.0000 0.41240  0.27630  0.65760  Biso   1.000  H 
  C35      1.0000 0.35520  0.09520  0.64770  Biso   1.000  C 
  C36      1.0000 0.38250  0.96740  0.65310  Biso   1.000  C 
  C37      1.0000 0.47940  0.93380  0.67260  Biso   1.000  C 
  H11      1.0000 0.49610  0.84760  0.67570  Biso   1.000  H 
  H12      1.0000 0.33500  0.90400  0.64350  Biso   1.000  H 
  H13      1.0000 0.57360  0.21750  0.68950  Biso   1.000  H 
  O11      1.0000 0.72070  0.07850  0.72020  Biso   1.000  O 
  O12      1.0000 0.84790  0.89780  0.67670  Biso   1.000  O 
  C38      1.0000 0.91170  0.88790  0.65010  Biso   1.000  C 
  C39      1.0000 0.87710  0.88520  0.58260  Biso   1.000  C 
  C40      1.0000 0.94300  0.87580  0.55000  Biso   1.000  C 
  C41      1.0000 0.90990  0.87230  0.48790  Biso   1.000  C 
  H14      1.0000 0.95470  0.86860  0.46630  Biso   1.000  H 
  C42      1.0000 0.81080  0.87420  0.45710  Biso   1.000  C 
  P4       1.0000 0.77190  0.86460  0.37716  Biso   1.000  P 
  C43      1.0000 0.78560  0.70080  0.35840  Biso   1.000  C 
  C44      1.0000 0.80060  0.67210  0.30400  Biso   1.000  C 
  H15      1.0000 0.80380  0.73810  0.27790  Biso   1.000  H 
  C45      1.0000 0.81090  0.54810  0.28790  Biso   1.000  C 
  H16      1.0000 0.82020  0.53040  0.25090  Biso   1.000  H 
  C46      1.0000 0.80750  0.44850  0.32700  Biso   1.000  C 
  C47      1.0000 0.82430  0.31340  0.31110  Biso   1.000  C 
  O13      1.0000 0.84760  0.29470  0.26280  Biso   1.000  O 
  O14      1.0000 0.81370  0.22120  0.34270  Biso   1.000  O 
  C48      1.0000 0.79300  0.47450  0.38260  Biso   1.000  C 
  H17      1.0000 0.79320  0.40840  0.40920  Biso   1.000  H 
  C49      1.0000 0.77830  0.59990  0.39760  Biso   1.000  C 
  H18      1.0000 0.76380  0.61770  0.43310  Biso   1.000  H 
  C50      1.0000 0.64480  0.90480  0.35230  Biso   1.000  C 
  C51      1.0000 0.57080  0.80990  0.33840  Biso   1.000  C 
  H19      1.0000 0.58760  0.72370  0.34240  Biso   1.000  H 
  C52      1.0000 0.47450  0.84510  0.31910  Biso   1.000  C 
  H20      1.0000 0.42640  0.78250  0.31050  Biso   1.000  H 
  C53      1.0000 0.44770  0.97570  0.31230  Biso   1.000  C 
  C54      1.0000 0.52060  0.06620  0.32740  Biso   1.000  C 
  H21      1.0000 0.50390  0.15240  0.32430  Biso   1.000  H 
  C55      1.0000 0.61750  0.03260  0.34690  Biso   1.000  C 
  H22      1.0000 0.66500  0.09600  0.35650  Biso   1.000  H 
  C56      1.0000 0.34300  0.00960  0.28670  Biso   1.000  C 
  O15      1.0000 0.32090  0.12120  0.27070  Biso   1.000  O 
  O16      1.0000 0.27930  0.92150  0.27980  Biso   1.000  O 
  O17      1.0000 0.83140  0.95160  0.35060  Biso   1.000  O 
  C57      1.0000 0.74610  0.88470  0.49060  Biso   1.000  C 
  H23      1.0000 0.67960  0.88710  0.47090  Biso   1.000  H 
  C58      1.0000 0.77820  0.89170  0.55240  Biso   1.000  C 
  H24      1.0000 0.73350  0.90090  0.57390  Biso   1.000  H 
  H25      1.0000 0.00950  0.87200  0.56980  Biso   1.000  H 
  O18      1.0000 0.00110  0.87970  0.67620  Biso   1.000  O 
  O19      1.0000 0.81370  0.77880  0.84270  Biso   1.000  O 
  O20      1.0000 0.99890  0.87970  0.82380  Biso   1.000  O 
  O21      1.0000 0.83140  0.04840  0.85060  Biso   1.000  O 
  O22      1.0000 0.92820  0.10920  0.75910  Biso   1.000  O 
  C59      1.0000 0.00000  0.15440  0.75000  Biso   1.000  C 
  H26      1.0000 0.00000  0.24340  0.75000  Biso   1.000  H 
  O23      1.0000 0.07180  0.10920  0.74090  Biso   1.000  O 
  C60      1.0000 0.79300  0.52550  0.88260  Biso   1.000  C 
  H27      1.0000 0.79320  0.59160  0.90920  Biso   1.000  H 
  C61      1.0000 0.77830  0.40010  0.89760  Biso   1.000  C 
  H28      1.0000 0.76380  0.38230  0.93310  Biso   1.000  H 
  C62      1.0000 0.64480  0.09520  0.85230  Biso   1.000  C 
  C63      1.0000 0.57080  0.19010  0.83840  Biso   1.000  C 
  H29      1.0000 0.58760  0.27630  0.84240  Biso   1.000  H 
  C64      1.0000 0.47450  0.15490  0.81910  Biso   1.000  C 
  H30      1.0000 0.42640  0.21750  0.81050  Biso   1.000  H 
  C65      1.0000 0.44770  0.02430  0.81230  Biso   1.000  C 
  C66      1.0000 0.34300  0.99040  0.78670  Biso   1.000  C 
  O24      1.0000 0.32090  0.87880  0.77070  Biso   1.000  O 
  O25      1.0000 0.27930  0.07850  0.77980  Biso   1.000  O 
  C67      1.0000 0.52060  0.93380  0.82740  Biso   1.000  C 
  H31      1.0000 0.50390  0.84760  0.82430  Biso   1.000  H 
  C68      1.0000 0.61750  0.96740  0.84690  Biso   1.000  C 
  H32      1.0000 0.66500  0.90400  0.85650  Biso   1.000  H 
  C69      1.0000 0.74610  0.11530  0.99060  Biso   1.000  C 
  H33      1.0000 0.67960  0.11290  0.97090  Biso   1.000  H 
  C70      1.0000 0.77820  0.10830  0.05240  Biso   1.000  C 
  H34      1.0000 0.73350  0.09910  0.07390  Biso   1.000  H 
  H35      1.0000 0.00950  0.12800  0.06980  Biso   1.000  H 
  O26      1.0000 0.00110  0.12030  0.17620  Biso   1.000  O 
  O27      1.0000 0.67910  0.12120  0.22930  Biso   1.000  O 
  C71      1.0000 0.65700  0.00960  0.21330  Biso   1.000  C 
  O28      1.0000 0.72070  0.92150  0.22020  Biso   1.000  O 
  C72      1.0000 0.55230  0.97570  0.18770  Biso   1.000  C 
  C73      1.0000 0.52550  0.84510  0.18090  Biso   1.000  C 
  C74      1.0000 0.42920  0.80990  0.16160  Biso   1.000  C 
  H36      1.0000 0.41240  0.72370  0.15760  Biso   1.000  H 
  C75      1.0000 0.35520  0.90480  0.14770  Biso   1.000  C 
  C76      1.0000 0.38250  0.03260  0.15310  Biso   1.000  C 
  H37      1.0000 0.33500  0.09600  0.14350  Biso   1.000  H 
  C77      1.0000 0.47940  0.06620  0.17260  Biso   1.000  C 
  H38      1.0000 0.49610  0.15240  0.17570  Biso   1.000  H 
  H39      1.0000 0.57360  0.78250  0.18950  Biso   1.000  H 
  O29      1.0000 0.92820  0.89080  0.25910  Biso   1.000  O 
  C78      1.0000 0.00000  0.84560  0.25000  Biso   1.000  C 
  H40      1.0000 0.00000  0.75660  0.25000  Biso   1.000  H 
  O30      1.0000 0.07180  0.89080  0.24090  Biso   1.000  O 
  C79      1.0000 0.22180  0.10830  0.44760  Biso   1.000  C 
  H41      1.0000 0.26650  0.09910  0.42610  Biso   1.000  H 
  C80      1.0000 0.25390  0.11530  0.50940  Biso   1.000  C 
  H42      1.0000 0.32040  0.11290  0.52910  Biso   1.000  H 
  O31      1.0000 0.16860  0.04840  0.64940  Biso   1.000  O 
  C81      1.0000 0.22170  0.40010  0.60240  Biso   1.000  C 
  H43      1.0000 0.23620  0.38230  0.56690  Biso   1.000  H 
  C82      1.0000 0.20700  0.52550  0.61740  Biso   1.000  C 
  H44      1.0000 0.20680  0.59160  0.59080  Biso   1.000  H 
  H45      1.0000 0.17980  0.46960  0.74910  Biso   1.000  H 
  C83      1.0000 0.22180  0.89170  0.94760  Biso   1.000  C 
  H46      1.0000 0.26650  0.90090  0.92610  Biso   1.000  H 
  C84      1.0000 0.25390  0.88470  0.00940  Biso   1.000  C 
  H47      1.0000 0.32040  0.88710  0.02910  Biso   1.000  H 
  O32      1.0000 0.16860  0.95160  0.14940  Biso   1.000  O 
  C85      1.0000 0.22170  0.59990  0.10240  Biso   1.000  C 
  C86      1.0000 0.20700  0.47450  0.11740  Biso   1.000  C 
  H48      1.0000 0.20680  0.40840  0.09080  Biso   1.000  H 
  H49      1.0000 0.23620  0.61770  0.06690  Biso   1.000  H 
  H50      1.0000 0.17980  0.53040  0.24910  Biso   1.000  H 
