data_image0
_cell_length_a       14.4014
_cell_length_b       10.4577
_cell_length_c       23.3524
_cell_angle_alpha    90
_cell_angle_beta     107.371
_cell_angle_gamma    90

_symmetry_space_group_name_H-M    "P 1"
_symmetry_int_tables_number       1

loop_
  _symmetry_equiv_pos_as_xyz
  'x, y, z'

loop_
  _atom_site_label
  _atom_site_occupancy
  _atom_site_fract_x
  _atom_site_fract_y
  _atom_site_fract_z
  _atom_site_thermal_displace_type
  _atom_site_B_iso_or_equiv
  _atom_site_type_symbol
  Tm1      1.0000 0.15190  0.06939  0.22716  Biso   1.000  Tm
  C1       1.0000 0.17420  0.31330  0.18960  Biso   1.000  C 
  O1       1.0000 0.18520  0.22230  0.15640  Biso   1.000  O 
  O2       1.0000 0.15270  0.29680  0.23780  Biso   1.000  O 
  C2       1.0000 0.19030  0.44880  0.17150  Biso   1.000  C 
  C3       1.0000 0.18770  0.55000  0.21150  Biso   1.000  C 
  C4       1.0000 0.20140  0.67350  0.19550  Biso   1.000  C 
  H1       1.0000 0.20150  0.73970  0.22220  Biso   1.000  H 
  C5       1.0000 0.21510  0.70130  0.14110  Biso   1.000  C 
  P1       1.0000 0.22846  0.86638  0.12249  Biso   1.000  P 
  C6       1.0000 0.19020  0.87500  0.04250  Biso   1.000  C 
  C7       1.0000 0.09040  0.87220  0.01140  Biso   1.000  C 
  H2       1.0000 0.04540  0.86950  0.03290  Biso   1.000  H 
  C8       1.0000 0.05790  0.87340  0.94950  Biso   1.000  C 
  H3       1.0000 0.99170  0.86700  0.92940  Biso   1.000  H 
  C9       1.0000 0.12430  0.88420  0.91760  Biso   1.000  C 
  C10      1.0000 0.09010  0.88840  0.85000  Biso   1.000  C 
  O3       1.0000 0.15340  0.89730  0.82380  Biso   1.000  O 
  Tm2      1.0000 0.15190  0.93061  0.72716  Biso   1.000  Tm
  O4       1.0000 0.18520  0.77770  0.65640  Biso   1.000  O 
  C11      1.0000 0.17420  0.68670  0.68960  Biso   1.000  C 
  O5       1.0000 0.15270  0.70320  0.73780  Biso   1.000  O 
  C12      1.0000 0.19030  0.55120  0.67150  Biso   1.000  C 
  C13      1.0000 0.18770  0.45000  0.71150  Biso   1.000  C 
  C14      1.0000 0.20140  0.32650  0.69550  Biso   1.000  C 
  H4       1.0000 0.20150  0.26030  0.72220  Biso   1.000  H 
  C15      1.0000 0.21510  0.29870  0.64110  Biso   1.000  C 
  C16      1.0000 0.21930  0.39740  0.60180  Biso   1.000  C 
  H5       1.0000 0.23110  0.37960  0.56560  Biso   1.000  H 
  C17      1.0000 0.20560  0.52270  0.61740  Biso   1.000  C 
  H6       1.0000 0.20680  0.58850  0.59090  Biso   1.000  H 
  P2       1.0000 0.22846  0.13362  0.62249  Biso   1.000  P 
  C18      1.0000 0.19020  0.12500  0.54250  Biso   1.000  C 
  C19      1.0000 0.09040  0.12780  0.51140  Biso   1.000  C 
  H7       1.0000 0.04540  0.13050  0.53290  Biso   1.000  H 
  C20      1.0000 0.05790  0.12660  0.44950  Biso   1.000  C 
  H8       1.0000 0.99170  0.13300  0.42940  Biso   1.000  H 
  C21      1.0000 0.12430  0.11580  0.41760  Biso   1.000  C 
  C22      1.0000 0.09010  0.11160  0.35000  Biso   1.000  C 
  O6       1.0000 0.15340  0.10270  0.32380  Biso   1.000  O 
  O7       1.0000 0.99950  0.12330  0.32440  Biso   1.000  O 
  Tm3      1.0000 0.84810  0.06939  0.27284  Biso   1.000  Tm
  O8       1.0000 0.84660  0.10270  0.17620  Biso   1.000  O 
  C23      1.0000 0.90990  0.11160  0.15000  Biso   1.000  C 
  C24      1.0000 0.87570  0.11580  0.08240  Biso   1.000  C 
  C25      1.0000 0.94210  0.12660  0.05050  Biso   1.000  C 
  C26      1.0000 0.90960  0.12780  0.98860  Biso   1.000  C 
  H9       1.0000 0.95460  0.13050  0.96710  Biso   1.000  H 
  C27      1.0000 0.80980  0.12500  0.95750  Biso   1.000  C 
  P3       1.0000 0.77154  0.13362  0.87751  Biso   1.000  P 
  C28      1.0000 0.78490  0.29870  0.85890  Biso   1.000  C 
  C29      1.0000 0.79860  0.32650  0.80450  Biso   1.000  C 
  H10      1.0000 0.79850  0.26030  0.77780  Biso   1.000  H 
  C30      1.0000 0.81230  0.45000  0.78850  Biso   1.000  C 
  H11      1.0000 0.82310  0.46710  0.75190  Biso   1.000  H 
  C31      1.0000 0.80970  0.55120  0.82850  Biso   1.000  C 
  C32      1.0000 0.82580  0.68670  0.81040  Biso   1.000  C 
  O9       1.0000 0.84730  0.70320  0.76220  Biso   1.000  O 
  Tm4      1.0000 0.84810  0.93061  0.77284  Biso   1.000  Tm
  O10      1.0000 0.67910  0.87720  0.73030  Biso   1.000  O 
  C33      1.0000 0.65640  0.99080  0.71210  Biso   1.000  C 
  C34      1.0000 0.55060  0.02600  0.68750  Biso   1.000  C 
  C35      1.0000 0.52510  0.15490  0.68170  Biso   1.000  C 
  C36      1.0000 0.42720  0.18810  0.66050  Biso   1.000  C 
  H12      1.0000 0.40990  0.27400  0.65540  Biso   1.000  H 
  C37      1.0000 0.35520  0.09560  0.64700  Biso   1.000  C 
  C38      1.0000 0.38140  0.96540  0.65220  Biso   1.000  C 
  H13      1.0000 0.33390  0.90230  0.64130  Biso   1.000  H 
  C39      1.0000 0.48280  0.93110  0.67460  Biso   1.000  C 
  H14      1.0000 0.50150  0.84580  0.68010  Biso   1.000  H 
  H15      1.0000 0.57290  0.21780  0.69190  Biso   1.000  H 
  O11      1.0000 0.71990  0.07580  0.72040  Biso   1.000  O 
  O12      1.0000 0.84660  0.89730  0.67620  Biso   1.000  O 
  C40      1.0000 0.90990  0.88840  0.65000  Biso   1.000  C 
  C41      1.0000 0.87570  0.88420  0.58240  Biso   1.000  C 
  C42      1.0000 0.94210  0.87340  0.55050  Biso   1.000  C 
  C43      1.0000 0.90960  0.87220  0.48860  Biso   1.000  C 
  H16      1.0000 0.95460  0.86950  0.46710  Biso   1.000  H 
  C44      1.0000 0.80980  0.87500  0.45750  Biso   1.000  C 
  P4       1.0000 0.77154  0.86638  0.37751  Biso   1.000  P 
  C45      1.0000 0.78490  0.70130  0.35890  Biso   1.000  C 
  C46      1.0000 0.79860  0.67350  0.30450  Biso   1.000  C 
  H17      1.0000 0.79850  0.73970  0.27780  Biso   1.000  H 
  C47      1.0000 0.81230  0.55000  0.28850  Biso   1.000  C 
  H18      1.0000 0.82310  0.53290  0.25190  Biso   1.000  H 
  C48      1.0000 0.80970  0.44880  0.32850  Biso   1.000  C 
  C49      1.0000 0.82580  0.31330  0.31040  Biso   1.000  C 
  O13      1.0000 0.84730  0.29680  0.26220  Biso   1.000  O 
  O14      1.0000 0.81480  0.22230  0.34360  Biso   1.000  O 
  C50      1.0000 0.79440  0.47730  0.38260  Biso   1.000  C 
  H19      1.0000 0.79320  0.41150  0.40910  Biso   1.000  H 
  C51      1.0000 0.78070  0.60260  0.39820  Biso   1.000  C 
  H20      1.0000 0.76890  0.62040  0.43440  Biso   1.000  H 
  C52      1.0000 0.64480  0.90440  0.35300  Biso   1.000  C 
  C53      1.0000 0.57280  0.81190  0.33950  Biso   1.000  C 
  H21      1.0000 0.59010  0.72600  0.34460  Biso   1.000  H 
  C54      1.0000 0.47490  0.84510  0.31830  Biso   1.000  C 
  H22      1.0000 0.42710  0.78220  0.30810  Biso   1.000  H 
  C55      1.0000 0.44940  0.97400  0.31250  Biso   1.000  C 
  C56      1.0000 0.51720  0.06890  0.32540  Biso   1.000  C 
  H23      1.0000 0.49850  0.15420  0.31990  Biso   1.000  H 
  C57      1.0000 0.61860  0.03460  0.34780  Biso   1.000  C 
  H24      1.0000 0.66610  0.09770  0.35870  Biso   1.000  H 
  C58      1.0000 0.34360  0.00920  0.28790  Biso   1.000  C 
  O15      1.0000 0.32090  0.12280  0.26970  Biso   1.000  O 
  O16      1.0000 0.28010  0.92420  0.27960  Biso   1.000  O 
  O17      1.0000 0.83200  0.95090  0.35120  Biso   1.000  O 
  C59      1.0000 0.74500  0.88600  0.49100  Biso   1.000  C 
  H25      1.0000 0.67860  0.88990  0.47150  Biso   1.000  H 
  C60      1.0000 0.77780  0.89110  0.55240  Biso   1.000  C 
  H26      1.0000 0.73340  0.89930  0.57410  Biso   1.000  H 
  H27      1.0000 0.00830  0.86700  0.57060  Biso   1.000  H 
  O18      1.0000 0.00050  0.87670  0.67560  Biso   1.000  O 
  O19      1.0000 0.81480  0.77770  0.84360  Biso   1.000  O 
  O20      1.0000 0.99950  0.87670  0.82440  Biso   1.000  O 
  O21      1.0000 0.83200  0.04910  0.85120  Biso   1.000  O 
  O22      1.0000 0.92840  0.10940  0.75890  Biso   1.000  O 
  C61      1.0000 0.00000  0.15620  0.75000  Biso   1.000  C 
  H28      1.0000 0.00000  0.24520  0.75000  Biso   1.000  H 
  O23      1.0000 0.07160  0.10940  0.74110  Biso   1.000  O 
  C62      1.0000 0.79440  0.52270  0.88260  Biso   1.000  C 
  H29      1.0000 0.79320  0.58850  0.90910  Biso   1.000  H 
  C63      1.0000 0.78070  0.39740  0.89820  Biso   1.000  C 
  H30      1.0000 0.76890  0.37960  0.93440  Biso   1.000  H 
  C64      1.0000 0.64480  0.09560  0.85300  Biso   1.000  C 
  C65      1.0000 0.57280  0.18810  0.83950  Biso   1.000  C 
  H31      1.0000 0.59010  0.27400  0.84460  Biso   1.000  H 
  C66      1.0000 0.47490  0.15490  0.81830  Biso   1.000  C 
  H32      1.0000 0.42710  0.21780  0.80810  Biso   1.000  H 
  C67      1.0000 0.44940  0.02600  0.81250  Biso   1.000  C 
  C68      1.0000 0.34360  0.99080  0.78790  Biso   1.000  C 
  O24      1.0000 0.32090  0.87720  0.76970  Biso   1.000  O 
  O25      1.0000 0.28010  0.07580  0.77960  Biso   1.000  O 
  C69      1.0000 0.51720  0.93110  0.82540  Biso   1.000  C 
  H33      1.0000 0.49850  0.84580  0.81990  Biso   1.000  H 
  C70      1.0000 0.61860  0.96540  0.84780  Biso   1.000  C 
  H34      1.0000 0.66610  0.90230  0.85870  Biso   1.000  H 
  C71      1.0000 0.74500  0.11400  0.99100  Biso   1.000  C 
  H35      1.0000 0.67860  0.11010  0.97150  Biso   1.000  H 
  C72      1.0000 0.77780  0.10890  0.05240  Biso   1.000  C 
  H36      1.0000 0.73340  0.10070  0.07410  Biso   1.000  H 
  H37      1.0000 0.00830  0.13300  0.07060  Biso   1.000  H 
  O26      1.0000 0.00050  0.12330  0.17560  Biso   1.000  O 
  O27      1.0000 0.67910  0.12280  0.23030  Biso   1.000  O 
  C73      1.0000 0.65640  0.00920  0.21210  Biso   1.000  C 
  O28      1.0000 0.71990  0.92420  0.22040  Biso   1.000  O 
  C74      1.0000 0.55060  0.97400  0.18750  Biso   1.000  C 
  C75      1.0000 0.52510  0.84510  0.18170  Biso   1.000  C 
  C76      1.0000 0.42720  0.81190  0.16050  Biso   1.000  C 
  H38      1.0000 0.40990  0.72600  0.15540  Biso   1.000  H 
  C77      1.0000 0.35520  0.90440  0.14700  Biso   1.000  C 
  C78      1.0000 0.38140  0.03460  0.15220  Biso   1.000  C 
  H39      1.0000 0.33390  0.09770  0.14130  Biso   1.000  H 
  C79      1.0000 0.48280  0.06890  0.17460  Biso   1.000  C 
  H40      1.0000 0.50150  0.15420  0.18010  Biso   1.000  H 
  H41      1.0000 0.57290  0.78220  0.19190  Biso   1.000  H 
  O29      1.0000 0.92840  0.89060  0.25890  Biso   1.000  O 
  C80      1.0000 0.00000  0.84380  0.25000  Biso   1.000  C 
  H42      1.0000 0.00000  0.75480  0.25000  Biso   1.000  H 
  O30      1.0000 0.07160  0.89060  0.24110  Biso   1.000  O 
  C81      1.0000 0.22220  0.10890  0.44760  Biso   1.000  C 
  H43      1.0000 0.26660  0.10070  0.42590  Biso   1.000  H 
  C82      1.0000 0.25500  0.11400  0.50900  Biso   1.000  C 
  H44      1.0000 0.32140  0.11010  0.52850  Biso   1.000  H 
  O31      1.0000 0.16800  0.04910  0.64880  Biso   1.000  O 
  H45      1.0000 0.17690  0.46710  0.74810  Biso   1.000  H 
  C83      1.0000 0.22220  0.89110  0.94760  Biso   1.000  C 
  H46      1.0000 0.26660  0.89930  0.92590  Biso   1.000  H 
  C84      1.0000 0.25500  0.88600  0.00900  Biso   1.000  C 
  H47      1.0000 0.32140  0.88990  0.02850  Biso   1.000  H 
  O32      1.0000 0.16800  0.95090  0.14880  Biso   1.000  O 
  C85      1.0000 0.21930  0.60260  0.10180  Biso   1.000  C 
  C86      1.0000 0.20560  0.47730  0.11740  Biso   1.000  C 
  H48      1.0000 0.20680  0.41150  0.09090  Biso   1.000  H 
  H49      1.0000 0.23110  0.62040  0.06560  Biso   1.000  H 
  H50      1.0000 0.17690  0.53290  0.24810  Biso   1.000  H 
