data_image0
_cell_length_a       7.1293
_cell_length_b       11.442
_cell_length_c       8.2387
_cell_angle_alpha    90
_cell_angle_beta     90
_cell_angle_gamma    90

_symmetry_space_group_name_H-M    "P 1"
_symmetry_int_tables_number       1

loop_
  _symmetry_equiv_pos_as_xyz
  'x, y, z'

loop_
  _atom_site_label
  _atom_site_occupancy
  _atom_site_fract_x
  _atom_site_fract_y
  _atom_site_fract_z
  _atom_site_thermal_displace_type
  _atom_site_B_iso_or_equiv
  _atom_site_type_symbol
  Co1      1.0000 0.50000  0.00000  0.50000  Biso   1.000  Co
  N1       1.0000 0.34700  0.86818  0.38210  Biso   1.000  N 
  N2       1.0000 0.15300  0.86818  0.38210  Biso   1.000  N 
  C1       1.0000 0.09900  0.77300  0.30920  Biso   1.000  C 
  H1       1.0000 0.97490  0.75080  0.29340  Biso   1.000  H 
  N3       1.0000 0.25000  0.71140  0.26010  Biso   1.000  N 
  C2       1.0000 0.25000  0.60210  0.17360  Biso   1.000  C 
  C3       1.0000 0.25000  0.50000  0.26170  Biso   1.000  C 
  H2       1.0000 0.25000  0.50000  0.37460  Biso   1.000  H 
  C4       1.0000 0.25000  0.39790  0.17360  Biso   1.000  C 
  C5       1.0000 0.25000  0.39580  0.00500  Biso   1.000  C 
  H3       1.0000 0.25000  0.32480  0.95010  Biso   1.000  H 
  C6       1.0000 0.25000  0.50000  0.91840  Biso   1.000  C 
  C7       1.0000 0.25000  0.50000  0.73230  Biso   1.000  C 
  O1       1.0000 0.25000  0.59790  0.66540  Biso   1.000  O 
  O2       1.0000 0.25000  0.40210  0.66540  Biso   1.000  O 
  C8       1.0000 0.25000  0.60420  0.00500  Biso   1.000  C 
  H4       1.0000 0.25000  0.67520  0.95010  Biso   1.000  H 
  N4       1.0000 0.25000  0.28860  0.26010  Biso   1.000  N 
  C9       1.0000 0.09900  0.22700  0.30920  Biso   1.000  C 
  H5       1.0000 0.97490  0.24920  0.29340  Biso   1.000  H 
  N5       1.0000 0.15300  0.13182  0.38210  Biso   1.000  N 
  N6       1.0000 0.34700  0.13182  0.38210  Biso   1.000  N 
  C10      1.0000 0.40100  0.22700  0.30920  Biso   1.000  C 
  H6       1.0000 0.52510  0.24920  0.29340  Biso   1.000  H 
  Co2      1.0000 0.00000  0.00000  0.50000  Biso   1.000  Co
  Cl1      1.0000 0.75000  0.00000  0.28976  Biso   1.000  Cl
  N7       1.0000 0.84700  0.86818  0.61790  Biso   1.000  N 
  C11      1.0000 0.90100  0.77300  0.69080  Biso   1.000  C 
  N8       1.0000 0.75000  0.71140  0.73990  Biso   1.000  N 
  C12      1.0000 0.59900  0.77300  0.69080  Biso   1.000  C 
  H7       1.0000 0.47490  0.75080  0.70660  Biso   1.000  H 
  N9       1.0000 0.65300  0.86818  0.61790  Biso   1.000  N 
  C13      1.0000 0.75000  0.60210  0.82640  Biso   1.000  C 
  C14      1.0000 0.75000  0.60420  0.99500  Biso   1.000  C 
  H8       1.0000 0.75000  0.67520  0.04990  Biso   1.000  H 
  C15      1.0000 0.75000  0.50000  0.08160  Biso   1.000  C 
  C16      1.0000 0.75000  0.50000  0.26770  Biso   1.000  C 
  O3       1.0000 0.75000  0.40210  0.33460  Biso   1.000  O 
  O4       1.0000 0.75000  0.59790  0.33460  Biso   1.000  O 
  C17      1.0000 0.75000  0.39580  0.99500  Biso   1.000  C 
  C18      1.0000 0.75000  0.39790  0.82640  Biso   1.000  C 
  C19      1.0000 0.75000  0.50000  0.73830  Biso   1.000  C 
  H9       1.0000 0.75000  0.50000  0.62540  Biso   1.000  H 
  N10      1.0000 0.75000  0.28860  0.73990  Biso   1.000  N 
  C20      1.0000 0.59900  0.22700  0.69080  Biso   1.000  C 
  H10      1.0000 0.47490  0.24920  0.70660  Biso   1.000  H 
  N11      1.0000 0.65300  0.13182  0.61790  Biso   1.000  N 
  N12      1.0000 0.84700  0.13182  0.61790  Biso   1.000  N 
  C21      1.0000 0.90100  0.22700  0.69080  Biso   1.000  C 
  H11      1.0000 0.02510  0.24920  0.70660  Biso   1.000  H 
  H12      1.0000 0.75000  0.32480  0.04990  Biso   1.000  H 
  H13      1.0000 0.02510  0.75080  0.70660  Biso   1.000  H 
  Cl2      1.0000 0.25000  0.00000  0.71024  Biso   1.000  Cl
  C22      1.0000 0.40100  0.77300  0.30920  Biso   1.000  C 
  H14      1.0000 0.52510  0.75080  0.29340  Biso   1.000  H 
