data_image0
_cell_length_a       5.8145
_cell_length_b       16.88
_cell_length_c       8.9663
_cell_angle_alpha    90
_cell_angle_beta     94.078
_cell_angle_gamma    90

_symmetry_space_group_name_H-M    "P 1"
_symmetry_int_tables_number       1

loop_
  _symmetry_equiv_pos_as_xyz
  'x, y, z'

loop_
  _atom_site_label
  _atom_site_occupancy
  _atom_site_fract_x
  _atom_site_fract_y
  _atom_site_fract_z
  _atom_site_thermal_displace_type
  _atom_site_B_iso_or_equiv
  _atom_site_type_symbol
  Cu1      1.0000 0.24791  0.43510  0.52825  Biso   1.000  Cu
  N1       1.0000 0.32650  0.33930  0.39210  Biso   1.000  N 
  C1       1.0000 0.24700  0.26490  0.40550  Biso   1.000  C 
  H1       1.0000 0.11480  0.25670  0.46000  Biso   1.000  H 
  C2       1.0000 0.34950  0.19980  0.34330  Biso   1.000  C 
  H2       1.0000 0.28800  0.14830  0.35600  Biso   1.000  H 
  C3       1.0000 0.54160  0.21010  0.26260  Biso   1.000  C 
  C4       1.0000 0.62260  0.28770  0.24780  Biso   1.000  C 
  H3       1.0000 0.75410  0.29790  0.19360  Biso   1.000  H 
  C5       1.0000 0.50980  0.34900  0.31240  Biso   1.000  C 
  H4       1.0000 0.56550  0.40130  0.29950  Biso   1.000  H 
  C6       1.0000 0.66540  0.14500  0.19490  Biso   1.000  C 
  N2       1.0000 0.57250  0.07760  0.14080  Biso   1.000  N 
  N3       1.0000 0.75250  0.03830  0.08690  Biso   1.000  N 
  H5       1.0000 0.78711  0.00984  0.18567  Biso   1.000  H 
  N4       1.0000 0.94090  0.08260  0.10820  Biso   1.000  N 
  N5       1.0000 0.88990  0.15040  0.17530  Biso   1.000  N 
  Cu2      1.0000 0.24791  0.06490  0.02825  Biso   1.000  Cu
  N6       1.0000 0.32650  0.16070  0.89210  Biso   1.000  N 
  C7       1.0000 0.24700  0.23510  0.90550  Biso   1.000  C 
  H6       1.0000 0.11480  0.24330  0.96000  Biso   1.000  H 
  C8       1.0000 0.34950  0.30020  0.84330  Biso   1.000  C 
  H7       1.0000 0.28800  0.35170  0.85600  Biso   1.000  H 
  C9       1.0000 0.54160  0.28990  0.76260  Biso   1.000  C 
  C10      1.0000 0.62260  0.21230  0.74780  Biso   1.000  C 
  H8       1.0000 0.75410  0.20210  0.69360  Biso   1.000  H 
  C11      1.0000 0.50980  0.15100  0.81240  Biso   1.000  C 
  H9       1.0000 0.56550  0.09870  0.79950  Biso   1.000  H 
  C12      1.0000 0.66540  0.35500  0.69490  Biso   1.000  C 
  N7       1.0000 0.57250  0.42240  0.64080  Biso   1.000  N 
  N8       1.0000 0.75250  0.46170  0.58690  Biso   1.000  N 
  H10      1.0000 0.78711  0.49016  0.68567  Biso   1.000  H 
  N9       1.0000 0.94090  0.41740  0.60820  Biso   1.000  N 
  N10      1.0000 0.88990  0.34960  0.67530  Biso   1.000  N 
  Cu3      1.0000 0.75209  0.56490  0.47175  Biso   1.000  Cu
  N11      1.0000 0.42750  0.57760  0.35920  Biso   1.000  N 
  C13      1.0000 0.33460  0.64500  0.30510  Biso   1.000  C 
  C14      1.0000 0.45840  0.71010  0.23740  Biso   1.000  C 
  C15      1.0000 0.65050  0.69980  0.15670  Biso   1.000  C 
  H11      1.0000 0.71200  0.64830  0.14400  Biso   1.000  H 
  C16      1.0000 0.75300  0.76490  0.09450  Biso   1.000  C 
  H12      1.0000 0.88520  0.75670  0.04000  Biso   1.000  H 
  N12      1.0000 0.67350  0.83930  0.10790  Biso   1.000  N 
  C17      1.0000 0.49020  0.84900  0.18760  Biso   1.000  C 
  H13      1.0000 0.43450  0.90130  0.20050  Biso   1.000  H 
  C18      1.0000 0.37740  0.78770  0.25220  Biso   1.000  C 
  H14      1.0000 0.24590  0.79790  0.30640  Biso   1.000  H 
  Cu4      1.0000 0.75209  0.93510  0.97175  Biso   1.000  Cu
  N13      1.0000 0.42750  0.92240  0.85920  Biso   1.000  N 
  C19      1.0000 0.33460  0.85500  0.80510  Biso   1.000  C 
  C20      1.0000 0.45840  0.78990  0.73740  Biso   1.000  C 
  C21      1.0000 0.37740  0.71230  0.75220  Biso   1.000  C 
  H15      1.0000 0.24590  0.70210  0.80640  Biso   1.000  H 
  C22      1.0000 0.49020  0.65100  0.68760  Biso   1.000  C 
  H16      1.0000 0.43450  0.59870  0.70050  Biso   1.000  H 
  N14      1.0000 0.67350  0.66070  0.60790  Biso   1.000  N 
  C23      1.0000 0.75300  0.73510  0.59450  Biso   1.000  C 
  H17      1.0000 0.88520  0.74330  0.54000  Biso   1.000  H 
  C24      1.0000 0.65050  0.80020  0.65670  Biso   1.000  C 
  H18      1.0000 0.71200  0.85170  0.64400  Biso   1.000  H 
  N15      1.0000 0.11010  0.84960  0.82470  Biso   1.000  N 
  N16      1.0000 0.05910  0.91740  0.89180  Biso   1.000  N 
  N17      1.0000 0.24750  0.96170  0.91310  Biso   1.000  N 
  H19      1.0000 0.21289  0.99016  0.81433  Biso   1.000  H 
  N18      1.0000 0.11010  0.65040  0.32470  Biso   1.000  N 
  N19      1.0000 0.05910  0.58260  0.39180  Biso   1.000  N 
  N20      1.0000 0.24750  0.53830  0.41310  Biso   1.000  N 
  H20      1.0000 0.21289  0.50984  0.31433  Biso   1.000  H 
