data_image0
_cell_length_a       13.7267
_cell_length_b       13.7267
_cell_length_c       8.4345
_cell_angle_alpha    90
_cell_angle_beta     90
_cell_angle_gamma    90

_symmetry_space_group_name_H-M    "P 1"
_symmetry_int_tables_number       1

loop_
  _symmetry_equiv_pos_as_xyz
  'x, y, z'

loop_
  _atom_site_label
  _atom_site_occupancy
  _atom_site_fract_x
  _atom_site_fract_y
  _atom_site_fract_z
  _atom_site_thermal_displace_type
  _atom_site_B_iso_or_equiv
  _atom_site_type_symbol
  C1       1.0000 0.50000  0.20070  0.35800  Biso   1.000  C 
  C2       1.0000 0.50000  0.79930  0.35800  Biso   1.000  C 
  C3       1.0000 0.79930  0.50000  0.35800  Biso   1.000  C 
  C4       1.0000 0.20070  0.50000  0.35800  Biso   1.000  C 
  C5       1.0000 0.50000  0.20070  0.64200  Biso   1.000  C 
  C6       1.0000 0.50000  0.79930  0.64200  Biso   1.000  C 
  C7       1.0000 0.20070  0.50000  0.64200  Biso   1.000  C 
  C8       1.0000 0.79930  0.50000  0.64200  Biso   1.000  C 
  C9       1.0000 0.00000  0.70070  0.85800  Biso   1.000  C 
  C10      1.0000 0.00000  0.29930  0.85800  Biso   1.000  C 
  C11      1.0000 0.29930  0.00000  0.85800  Biso   1.000  C 
  C12      1.0000 0.70070  0.00000  0.85800  Biso   1.000  C 
  C13      1.0000 0.00000  0.70070  0.14200  Biso   1.000  C 
  C14      1.0000 0.00000  0.29930  0.14200  Biso   1.000  C 
  C15      1.0000 0.70070  0.00000  0.14200  Biso   1.000  C 
  C16      1.0000 0.29930  0.00000  0.14200  Biso   1.000  C 
  H1       1.0000 0.50000  0.16773  0.25900  Biso   1.000  H 
  H2       1.0000 0.50000  0.83227  0.25900  Biso   1.000  H 
  H3       1.0000 0.83227  0.50000  0.25900  Biso   1.000  H 
  H4       1.0000 0.16773  0.50000  0.25900  Biso   1.000  H 
  H5       1.0000 0.50000  0.16773  0.74100  Biso   1.000  H 
  H6       1.0000 0.50000  0.83227  0.74100  Biso   1.000  H 
  H7       1.0000 0.16773  0.50000  0.74100  Biso   1.000  H 
  H8       1.0000 0.83227  0.50000  0.74100  Biso   1.000  H 
  H9       1.0000 0.00000  0.66773  0.75900  Biso   1.000  H 
  H10      1.0000 0.00000  0.33227  0.75900  Biso   1.000  H 
  H11      1.0000 0.33227  0.00000  0.75900  Biso   1.000  H 
  H12      1.0000 0.66773  0.00000  0.75900  Biso   1.000  H 
  H13      1.0000 0.00000  0.66773  0.24100  Biso   1.000  H 
  H14      1.0000 0.00000  0.33227  0.24100  Biso   1.000  H 
  H15      1.0000 0.66773  0.00000  0.24100  Biso   1.000  H 
  H16      1.0000 0.33227  0.00000  0.24100  Biso   1.000  H 
  C17      1.0000 0.50000  0.30180  0.36300  Biso   1.000  C 
  C18      1.0000 0.50000  0.69820  0.36300  Biso   1.000  C 
  C19      1.0000 0.69820  0.50000  0.36300  Biso   1.000  C 
  C20      1.0000 0.30180  0.50000  0.36300  Biso   1.000  C 
  C21      1.0000 0.50000  0.30180  0.63700  Biso   1.000  C 
  C22      1.0000 0.50000  0.69820  0.63700  Biso   1.000  C 
  C23      1.0000 0.30180  0.50000  0.63700  Biso   1.000  C 
  C24      1.0000 0.69820  0.50000  0.63700  Biso   1.000  C 
  C25      1.0000 0.00000  0.80180  0.86300  Biso   1.000  C 
  C26      1.0000 0.00000  0.19820  0.86300  Biso   1.000  C 
  C27      1.0000 0.19820  0.00000  0.86300  Biso   1.000  C 
  C28      1.0000 0.80180  0.00000  0.86300  Biso   1.000  C 
  C29      1.0000 0.00000  0.80180  0.13700  Biso   1.000  C 
  C30      1.0000 0.00000  0.19820  0.13700  Biso   1.000  C 
  C31      1.0000 0.80180  0.00000  0.13700  Biso   1.000  C 
  C32      1.0000 0.19820  0.00000  0.13700  Biso   1.000  C 
  H17      1.0000 0.50000  0.33703  0.26610  Biso   1.000  H 
  H18      1.0000 0.50000  0.66297  0.26610  Biso   1.000  H 
  H19      1.0000 0.66297  0.50000  0.26610  Biso   1.000  H 
  H20      1.0000 0.33703  0.50000  0.26610  Biso   1.000  H 
  H21      1.0000 0.50000  0.33703  0.73389  Biso   1.000  H 
  H22      1.0000 0.50000  0.66297  0.73389  Biso   1.000  H 
  H23      1.0000 0.33703  0.50000  0.73389  Biso   1.000  H 
  H24      1.0000 0.66297  0.50000  0.73389  Biso   1.000  H 
  H25      1.0000 0.00000  0.83703  0.76611  Biso   1.000  H 
  H26      1.0000 0.00000  0.16297  0.76611  Biso   1.000  H 
  H27      1.0000 0.16297  0.00000  0.76611  Biso   1.000  H 
  H28      1.0000 0.83703  0.00000  0.76611  Biso   1.000  H 
  H29      1.0000 0.00000  0.83703  0.23390  Biso   1.000  H 
  H30      1.0000 0.00000  0.16297  0.23390  Biso   1.000  H 
  H31      1.0000 0.83703  0.00000  0.23390  Biso   1.000  H 
  H32      1.0000 0.16297  0.00000  0.23390  Biso   1.000  H 
  C33      1.0000 0.50000  0.14750  0.50000  Biso   1.000  C 
  C34      1.0000 0.50000  0.85250  0.50000  Biso   1.000  C 
  C35      1.0000 0.85250  0.50000  0.50000  Biso   1.000  C 
  C36      1.0000 0.14750  0.50000  0.50000  Biso   1.000  C 
  C37      1.0000 0.00000  0.64750  0.00000  Biso   1.000  C 
  C38      1.0000 0.00000  0.35250  0.00000  Biso   1.000  C 
  C39      1.0000 0.35250  0.00000  0.00000  Biso   1.000  C 
  C40      1.0000 0.64750  0.00000  0.00000  Biso   1.000  C 
  C41      1.0000 0.50000  0.04240  0.50000  Biso   1.000  C 
  C42      1.0000 0.50000  0.95760  0.50000  Biso   1.000  C 
  C43      1.0000 0.95760  0.50000  0.50000  Biso   1.000  C 
  C44      1.0000 0.04240  0.50000  0.50000  Biso   1.000  C 
  C45      1.0000 0.00000  0.54240  0.00000  Biso   1.000  C 
  C46      1.0000 0.00000  0.45760  0.00000  Biso   1.000  C 
  C47      1.0000 0.45760  0.00000  0.00000  Biso   1.000  C 
  C48      1.0000 0.54240  0.00000  0.00000  Biso   1.000  C 
  Cu1      1.0000 0.50000  0.50000  0.50000  Biso   1.000  Cu
  Cu2      1.0000 0.00000  0.00000  0.00000  Biso   1.000  Cu
  F1       1.0000 0.50000  0.50000  0.21610  Biso   1.000  F 
  F2       1.0000 0.50000  0.50000  0.78390  Biso   1.000  F 
  F3       1.0000 0.00000  0.00000  0.71610  Biso   1.000  F 
  F4       1.0000 0.00000  0.00000  0.28390  Biso   1.000  F 
  F5       1.0000 0.50000  0.36490  0.00000  Biso   1.000  F 
  F6       1.0000 0.50000  0.63510  0.00000  Biso   1.000  F 
  F7       1.0000 0.63510  0.50000  0.00000  Biso   1.000  F 
  F8       1.0000 0.36490  0.50000  0.00000  Biso   1.000  F 
  F9       1.0000 0.00000  0.86490  0.50000  Biso   1.000  F 
  F10      1.0000 0.00000  0.13510  0.50000  Biso   1.000  F 
  F11      1.0000 0.13510  0.00000  0.50000  Biso   1.000  F 
  F12      1.0000 0.86490  0.00000  0.50000  Biso   1.000  F 
  N1       1.0000 0.50000  0.35140  0.50000  Biso   1.000  N 
  N2       1.0000 0.50000  0.64860  0.50000  Biso   1.000  N 
  N3       1.0000 0.64860  0.50000  0.50000  Biso   1.000  N 
  N4       1.0000 0.35140  0.50000  0.50000  Biso   1.000  N 
  N5       1.0000 0.00000  0.85140  0.00000  Biso   1.000  N 
  N6       1.0000 0.00000  0.14860  0.00000  Biso   1.000  N 
  N7       1.0000 0.14860  0.00000  0.00000  Biso   1.000  N 
  N8       1.0000 0.85140  0.00000  0.00000  Biso   1.000  N 
  Nb1      1.0000 0.50000  0.50000  0.00000  Biso   1.000  Nb
  Nb2      1.0000 0.00000  0.00000  0.50000  Biso   1.000  Nb
