data_image0
_cell_length_a       8.349
_cell_length_b       9.476
_cell_length_c       17.828
_cell_angle_alpha    90
_cell_angle_beta     90
_cell_angle_gamma    90

_symmetry_space_group_name_H-M    "P 1"
_symmetry_int_tables_number       1

loop_
  _symmetry_equiv_pos_as_xyz
  'x, y, z'

loop_
  _atom_site_label
  _atom_site_occupancy
  _atom_site_fract_x
  _atom_site_fract_y
  _atom_site_fract_z
  _atom_site_thermal_displace_type
  _atom_site_B_iso_or_equiv
  _atom_site_type_symbol
  Zn1      1.0000 0.00000  0.50000  0.50000  Biso   1.000  Zn
  Zn2      1.0000 0.50000  0.50000  0.00000  Biso   1.000  Zn
  Zn3      1.0000 0.00000  0.00000  0.00000  Biso   1.000  Zn
  Zn4      1.0000 0.50000  0.00000  0.50000  Biso   1.000  Zn
  N1       1.0000 0.85360  0.32080  0.48306  Biso   1.000  N 
  N2       1.0000 0.64640  0.67920  0.98306  Biso   1.000  N 
  N3       1.0000 0.14640  0.82080  0.01694  Biso   1.000  N 
  N4       1.0000 0.35360  0.17920  0.51694  Biso   1.000  N 
  N5       1.0000 0.14640  0.67920  0.51694  Biso   1.000  N 
  N6       1.0000 0.35360  0.32080  0.01694  Biso   1.000  N 
  N7       1.0000 0.85360  0.17920  0.98306  Biso   1.000  N 
  N8       1.0000 0.64640  0.82080  0.48306  Biso   1.000  N 
  N9       1.0000 0.74880  0.24050  0.51939  Biso   1.000  N 
  N10      1.0000 0.75120  0.75950  0.01939  Biso   1.000  N 
  N11      1.0000 0.25120  0.74050  0.98061  Biso   1.000  N 
  N12      1.0000 0.24880  0.25950  0.48061  Biso   1.000  N 
  N13      1.0000 0.25120  0.75950  0.48061  Biso   1.000  N 
  N14      1.0000 0.24880  0.24050  0.98061  Biso   1.000  N 
  N15      1.0000 0.74880  0.25950  0.01939  Biso   1.000  N 
  N16      1.0000 0.75120  0.74050  0.51939  Biso   1.000  N 
  N17      1.0000 0.69790  0.14300  0.47237  Biso   1.000  N 
  N18      1.0000 0.80210  0.85700  0.97237  Biso   1.000  N 
  N19      1.0000 0.30210  0.64300  0.02763  Biso   1.000  N 
  N20      1.0000 0.19790  0.35700  0.52763  Biso   1.000  N 
  N21      1.0000 0.30210  0.85700  0.52763  Biso   1.000  N 
  N22      1.0000 0.19790  0.14300  0.02763  Biso   1.000  N 
  N23      1.0000 0.69790  0.35700  0.97237  Biso   1.000  N 
  N24      1.0000 0.80210  0.64300  0.47237  Biso   1.000  N 
  N25      1.0000 0.76760  0.15740  0.40459  Biso   1.000  N 
  N26      1.0000 0.73240  0.84260  0.90459  Biso   1.000  N 
  N27      1.0000 0.23240  0.65740  0.09541  Biso   1.000  N 
  N28      1.0000 0.26760  0.34260  0.59541  Biso   1.000  N 
  N29      1.0000 0.23240  0.84260  0.59541  Biso   1.000  N 
  N30      1.0000 0.26760  0.15740  0.09541  Biso   1.000  N 
  N31      1.0000 0.76760  0.34260  0.90459  Biso   1.000  N 
  N32      1.0000 0.73240  0.65740  0.40459  Biso   1.000  N 
  N33      1.0000 0.04070  0.45320  0.38246  Biso   1.000  N 
  N34      1.0000 0.45930  0.54680  0.88246  Biso   1.000  N 
  N35      1.0000 0.95930  0.95320  0.11754  Biso   1.000  N 
  N36      1.0000 0.54070  0.04680  0.61754  Biso   1.000  N 
  N37      1.0000 0.95930  0.54680  0.61754  Biso   1.000  N 
  N38      1.0000 0.54070  0.45320  0.11754  Biso   1.000  N 
  N39      1.0000 0.04070  0.04680  0.88246  Biso   1.000  N 
  N40      1.0000 0.45930  0.95320  0.38246  Biso   1.000  N 
  N41      1.0000 0.98010  0.28060  0.28978  Biso   1.000  N 
  N42      1.0000 0.51990  0.71940  0.78978  Biso   1.000  N 
  N43      1.0000 0.01990  0.78060  0.21022  Biso   1.000  N 
  N44      1.0000 0.48010  0.21940  0.71022  Biso   1.000  N 
  N45      1.0000 0.01990  0.71940  0.71022  Biso   1.000  N 
  N46      1.0000 0.48010  0.28060  0.21022  Biso   1.000  N 
  N47      1.0000 0.98010  0.21940  0.78978  Biso   1.000  N 
  N48      1.0000 0.51990  0.78060  0.28978  Biso   1.000  N 
  C1       1.0000 0.86340  0.26840  0.41356  Biso   1.000  C 
  C2       1.0000 0.63660  0.73160  0.91356  Biso   1.000  C 
  C3       1.0000 0.13660  0.76840  0.08644  Biso   1.000  C 
  C4       1.0000 0.36340  0.23160  0.58644  Biso   1.000  C 
  C5       1.0000 0.13660  0.73160  0.58644  Biso   1.000  C 
  C6       1.0000 0.36340  0.26840  0.08644  Biso   1.000  C 
  C7       1.0000 0.86340  0.23160  0.91356  Biso   1.000  C 
  C8       1.0000 0.63660  0.76840  0.41356  Biso   1.000  C 
  C9       1.0000 0.96760  0.33650  0.35780  Biso   1.000  C 
  C10      1.0000 0.53240  0.66350  0.85780  Biso   1.000  C 
  C11      1.0000 0.03240  0.83650  0.14220  Biso   1.000  C 
  C12      1.0000 0.46760  0.16350  0.64220  Biso   1.000  C 
  C13      1.0000 0.03240  0.66350  0.64220  Biso   1.000  C 
  C14      1.0000 0.46760  0.33650  0.14220  Biso   1.000  C 
  C15      1.0000 0.96760  0.16350  0.85780  Biso   1.000  C 
  C16      1.0000 0.53240  0.83650  0.35780  Biso   1.000  C 
  C17      1.0000 0.07350  0.35280  0.24250  Biso   1.000  C 
  C18      1.0000 0.42650  0.64720  0.74250  Biso   1.000  C 
  C19      1.0000 0.92650  0.85280  0.25750  Biso   1.000  C 
  C20      1.0000 0.57350  0.14720  0.75750  Biso   1.000  C 
  C21      1.0000 0.92650  0.64720  0.75750  Biso   1.000  C 
  C22      1.0000 0.57350  0.35280  0.25750  Biso   1.000  C 
  C23      1.0000 0.07350  0.14720  0.74250  Biso   1.000  C 
  C24      1.0000 0.42650  0.85280  0.24250  Biso   1.000  C 
  H1       1.0000 0.08600  0.31820  0.19400  Biso   1.000  H 
  H2       1.0000 0.41400  0.68180  0.69400  Biso   1.000  H 
  H3       1.0000 0.91400  0.81820  0.30600  Biso   1.000  H 
  H4       1.0000 0.58600  0.18180  0.80600  Biso   1.000  H 
  H5       1.0000 0.91400  0.68180  0.80600  Biso   1.000  H 
  H6       1.0000 0.58600  0.31820  0.30600  Biso   1.000  H 
  H7       1.0000 0.08600  0.18180  0.69400  Biso   1.000  H 
  H8       1.0000 0.41400  0.81820  0.19400  Biso   1.000  H 
  C25      1.0000 0.15170  0.47440  0.26120  Biso   1.000  C 
  C26      1.0000 0.34830  0.52560  0.76120  Biso   1.000  C 
  C27      1.0000 0.84830  0.97440  0.23880  Biso   1.000  C 
  C28      1.0000 0.65170  0.02560  0.73880  Biso   1.000  C 
  C29      1.0000 0.84830  0.52560  0.73880  Biso   1.000  C 
  C30      1.0000 0.65170  0.47440  0.23880  Biso   1.000  C 
  C31      1.0000 0.15170  0.02560  0.76120  Biso   1.000  C 
  C32      1.0000 0.34830  0.97440  0.26120  Biso   1.000  C 
  H9       1.0000 0.21410  0.52300  0.22650  Biso   1.000  H 
  H10      1.0000 0.28590  0.47700  0.72650  Biso   1.000  H 
  H11      1.0000 0.78590  0.02300  0.27350  Biso   1.000  H 
  H12      1.0000 0.71410  0.97700  0.77350  Biso   1.000  H 
  H13      1.0000 0.78590  0.47700  0.77350  Biso   1.000  H 
  H14      1.0000 0.71410  0.52300  0.27350  Biso   1.000  H 
  H15      1.0000 0.21410  0.97700  0.72650  Biso   1.000  H 
  H16      1.0000 0.28590  0.02300  0.22650  Biso   1.000  H 
  C33      1.0000 0.13400  0.52170  0.33330  Biso   1.000  C 
  C34      1.0000 0.36600  0.47830  0.83330  Biso   1.000  C 
  C35      1.0000 0.86600  0.02170  0.16670  Biso   1.000  C 
  C36      1.0000 0.63400  0.97830  0.66670  Biso   1.000  C 
  C37      1.0000 0.86600  0.47830  0.66670  Biso   1.000  C 
  C38      1.0000 0.63400  0.52170  0.16670  Biso   1.000  C 
  C39      1.0000 0.13400  0.97830  0.83330  Biso   1.000  C 
  C40      1.0000 0.36600  0.02170  0.33330  Biso   1.000  C 
  H17      1.0000 0.18780  0.60280  0.34840  Biso   1.000  H 
  H18      1.0000 0.31220  0.39720  0.84840  Biso   1.000  H 
  H19      1.0000 0.81220  0.10280  0.15160  Biso   1.000  H 
  H20      1.0000 0.68780  0.89720  0.65160  Biso   1.000  H 
  H21      1.0000 0.81220  0.39720  0.65160  Biso   1.000  H 
  H22      1.0000 0.68780  0.60280  0.15160  Biso   1.000  H 
  H23      1.0000 0.18780  0.89720  0.84840  Biso   1.000  H 
  H24      1.0000 0.31220  0.10280  0.34840  Biso   1.000  H 
