data_image0
_cell_length_a       16.158
_cell_length_b       18.171
_cell_length_c       18.955
_cell_angle_alpha    99.19
_cell_angle_beta     106.28
_cell_angle_gamma    116.34

_symmetry_space_group_name_H-M    "P 1"
_symmetry_int_tables_number       1

loop_
  _symmetry_equiv_pos_as_xyz
  'x, y, z'

loop_
  _atom_site_label
  _atom_site_occupancy
  _atom_site_fract_x
  _atom_site_fract_y
  _atom_site_fract_z
  _atom_site_thermal_displace_type
  _atom_site_B_iso_or_equiv
  _atom_site_type_symbol
  O1       1.0000 0.31520  0.86159  0.10803  Biso   1.000  O 
  Zn1      1.0000 0.30431  0.87873  0.21282  Biso   1.000  Zn
  C1       1.0000 0.36300  0.02890  0.29880  Biso   1.000  C 
  C2       1.0000 0.41190  0.12480  0.33710  Biso   1.000  C 
  C3       1.0000 0.44470  0.18140  0.29870  Biso   1.000  C 
  H1       1.0000 0.43480  0.15960  0.24730  Biso   1.000  H 
  C4       1.0000 0.49410  0.27410  0.33470  Biso   1.000  C 
  C5       1.0000 0.52510  0.33530  0.29450  Biso   1.000  C 
  H2       1.0000 0.51530  0.31500  0.24290  Biso   1.000  H 
  C6       1.0000 0.56830  0.42220  0.32980  Biso   1.000  C 
  H3       1.0000 0.58720  0.46060  0.30240  Biso   1.000  H 
  C7       1.0000 0.58440  0.45370  0.40880  Biso   1.000  C 
  N1       1.0000 0.62760  0.54550  0.44420  Biso   1.000  N 
  C8       1.0000 0.69300  0.58620  0.52500  Biso   1.000  C 
  C9       1.0000 0.76460  0.56220  0.55550  Biso   1.000  C 
  H4       1.0000 0.76630  0.51890  0.52360  Biso   1.000  H 
  C10      1.0000 0.82990  0.60180  0.63070  Biso   1.000  C 
  H5       1.0000 0.87690  0.58580  0.64960  Biso   1.000  H 
  C11      1.0000 0.82900  0.66760  0.68180  Biso   1.000  C 
  C12      1.0000 0.89750  0.71250  0.76120  Biso   1.000  C 
  H6       1.0000 0.94540  0.69820  0.78200  Biso   1.000  H 
  C13      1.0000 0.89450  0.77540  0.80680  Biso   1.000  C 
  C14      1.0000 0.82490  0.79990  0.77620  Biso   1.000  C 
  H7       1.0000 0.82480  0.84490  0.80740  Biso   1.000  H 
  C15      1.0000 0.75670  0.75760  0.70020  Biso   1.000  C 
  H8       1.0000 0.70920  0.77290  0.68080  Biso   1.000  H 
  C16      1.0000 0.75790  0.69150  0.65110  Biso   1.000  C 
  C17      1.0000 0.68930  0.64740  0.57190  Biso   1.000  C 
  H9       1.0000 0.64050  0.66120  0.55210  Biso   1.000  H 
  C18      1.0000 0.96470  0.82080  0.89230  Biso   1.000  C 
  O2       1.0000 0.03700  0.80540  0.91172  Biso   1.000  O 
  Zn2      1.0000 0.15344  0.86212  0.01036  Biso   1.000  Zn
  O3       1.0000 0.11800  0.85430  0.10080  Biso   1.000  O 
  C19      1.0000 0.09590  0.80290  0.13750  Biso   1.000  C 
  O4       1.0000 0.15970  0.79779  0.18820  Biso   1.000  O 
  C20      1.0000 0.98760  0.74960  0.12440  Biso   1.000  C 
  C21      1.0000 0.91630  0.76090  0.07170  Biso   1.000  C 
  H10      1.0000 0.93640  0.79750  0.04310  Biso   1.000  H 
  C22      1.0000 0.81940  0.71870  0.06290  Biso   1.000  C 
  H11      1.0000 0.77320  0.72640  0.02770  Biso   1.000  H 
  C23      1.0000 0.78660  0.66370  0.10540  Biso   1.000  C 
  C24      1.0000 0.68580  0.62290  0.09990  Biso   1.000  C 
  C25      1.0000 0.65570  0.57230  0.14340  Biso   1.000  C 
  C26      1.0000 0.72500  0.55480  0.19200  Biso   1.000  C 
  H12      1.0000 0.70420  0.51750  0.21990  Biso   1.000  H 
  C27      1.0000 0.82120  0.59250  0.19730  Biso   1.000  C 
  H13      1.0000 0.86560  0.58020  0.22890  Biso   1.000  H 
  C28      1.0000 0.85550  0.64920  0.15670  Biso   1.000  C 
  C29      1.0000 0.95820  0.69530  0.16520  Biso   1.000  C 
  H14      1.0000 0.00540  0.68780  0.19940  Biso   1.000  H 
  N2       1.0000 0.55840  0.53900  0.14270  Biso   1.000  N 
  C30      1.0000 0.51560  0.59220  0.13160  Biso   1.000  C 
  C31      1.0000 0.57400  0.68070  0.18160  Biso   1.000  C 
  H15      1.0000 0.63670  0.70080  0.22020  Biso   1.000  H 
  C32      1.0000 0.53980  0.73560  0.17370  Biso   1.000  C 
  H16      1.0000 0.57990  0.79350  0.20570  Biso   1.000  H 
  C33      1.0000 0.44200  0.70550  0.11640  Biso   1.000  C 
  C34      1.0000 0.40400  0.76130  0.10870  Biso   1.000  C 
  H17      1.0000 0.44290  0.81900  0.14120  Biso   1.000  H 
  C35      1.0000 0.30970  0.73170  0.05350  Biso   1.000  C 
  C36      1.0000 0.26960  0.79080  0.05120  Biso   1.000  C 
  O5       1.0000 0.19220  0.77144  0.99398  Biso   1.000  O 
  C37      1.0000 0.25240  0.64470  0.00170  Biso   1.000  C 
  C38      1.0000 0.28950  0.59020  0.00880  Biso   1.000  C 
  C39      1.0000 0.38310  0.61800  0.06640  Biso   1.000  C 
  C40      1.0000 0.42300  0.56240  0.07590  Biso   1.000  C 
  H18      1.0000 0.38500  0.50470  0.04350  Biso   1.000  H 
  H19      1.0000 0.25150  0.53340  0.97440  Biso   1.000  H 
  H20      1.0000 0.18980  0.62470  0.96300  Biso   1.000  H 
  C41      1.0000 0.49460  0.44940  0.12660  Biso   1.000  C 
  C42      1.0000 0.41440  0.42360  0.15310  Biso   1.000  C 
  C43      1.0000 0.35040  0.34010  0.13870  Biso   1.000  C 
  H21      1.0000 0.29830  0.32500  0.15580  Biso   1.000  H 
  C44      1.0000 0.35940  0.27520  0.09890  Biso   1.000  C 
  C45      1.0000 0.29010  0.18730  0.08270  Biso   1.000  C 
  C46      1.0000 0.30400  0.12460  0.04740  Biso   1.000  C 
  C47      1.0000 0.38120  0.14500  0.02410  Biso   1.000  C 
  C48      1.0000 0.45060  0.23110  0.03540  Biso   1.000  C 
  H22      1.0000 0.50150  0.24380  0.01730  Biso   1.000  H 
  C49      1.0000 0.44210  0.29820  0.07440  Biso   1.000  C 
  C50      1.0000 0.50770  0.38750  0.08870  Biso   1.000  C 
  H23      1.0000 0.56030  0.40420  0.07210  Biso   1.000  H 
  H24      1.0000 0.38820  0.10050  0.00000  Biso   1.000  H 
  C51      1.0000 0.22900  0.03130  0.03460  Biso   1.000  C 
  O6       1.0000 0.14930  0.01120  0.04520  Biso   1.000  O 
  Zn3      1.0000 0.00000  0.00000  0.00000  Biso   1.000  Zn
  O7       1.0000 0.97180  0.97290  0.09640  Biso   1.000  O 
  C52      1.0000 0.02630  0.96790  0.15350  Biso   1.000  C 
  H25      1.0000 0.08350  0.96910  0.15080  Biso   1.000  H 
  N3       1.0000 0.01250  0.96110  0.21540  Biso   1.000  N 
  C53      1.0000 0.07510  0.94950  0.28050  Biso   1.000  C 
  H26      1.0000 0.03140  0.89800  0.28970  Biso   1.000  H 
  H27      1.0000 0.12100  0.93780  0.26400  Biso   1.000  H 
  C54      1.0000 0.13590  0.02250  0.35630  Biso   1.000  C 
  H28      1.0000 0.18520  0.07250  0.34990  Biso   1.000  H 
  H29      1.0000 0.09230  0.03670  0.37300  Biso   1.000  H 
  H30      1.0000 0.16920  0.00520  0.39470  Biso   1.000  H 
  C55      1.0000 0.92140  0.96840  0.22000  Biso   1.000  C 
  C56      1.0000 0.82210  0.88710  0.18870  Biso   1.000  C 
  H31      1.0000 0.77360  0.89970  0.19800  Biso   1.000  H 
  H32      1.0000 0.80110  0.86220  0.13370  Biso   1.000  H 
  H33      1.0000 0.82710  0.84660  0.21400  Biso   1.000  H 
  H34      1.0000 0.93760  0.99550  0.27430  Biso   1.000  H 
  H35      1.0000 0.91480  0.00750  0.19270  Biso   1.000  H 
  O8       1.0000 0.02820  0.02710  0.90360  Biso   1.000  O 
  C57      1.0000 0.97370  0.03210  0.84650  Biso   1.000  C 
  H36      1.0000 0.91650  0.03090  0.84920  Biso   1.000  H 
  N4       1.0000 0.98750  0.03890  0.78460  Biso   1.000  N 
  C58      1.0000 0.92490  0.05050  0.71950  Biso   1.000  C 
  H37      1.0000 0.87900  0.06220  0.73600  Biso   1.000  H 
  H38      1.0000 0.96860  0.10200  0.71030  Biso   1.000  H 
  C59      1.0000 0.86410  0.97750  0.64370  Biso   1.000  C 
  H39      1.0000 0.83080  0.99480  0.60530  Biso   1.000  H 
  H40      1.0000 0.90770  0.96330  0.62700  Biso   1.000  H 
  H41      1.0000 0.81480  0.92750  0.65010  Biso   1.000  H 
  C60      1.0000 0.07860  0.03160  0.78000  Biso   1.000  C 
  H42      1.0000 0.06240  0.00450  0.72570  Biso   1.000  H 
  C61      1.0000 0.17790  0.11290  0.81130  Biso   1.000  C 
  H43      1.0000 0.22640  0.10030  0.80200  Biso   1.000  H 
  H44      1.0000 0.17290  0.15340  0.78600  Biso   1.000  H 
  H45      1.0000 0.19890  0.13780  0.86630  Biso   1.000  H 
  H46      1.0000 0.08520  0.99250  0.80730  Biso   1.000  H 
  O9       1.0000 0.05130  0.13400  0.06362  Biso   1.000  O 
  C62      1.0000 0.03530  0.17920  0.10770  Biso   1.000  C 
  C63      1.0000 0.10550  0.22460  0.19320  Biso   1.000  C 
  C64      1.0000 0.17510  0.20010  0.22380  Biso   1.000  C 
  H47      1.0000 0.17520  0.15510  0.19260  Biso   1.000  H 
  C65      1.0000 0.24330  0.24240  0.29980  Biso   1.000  C 
  H48      1.0000 0.29080  0.22710  0.31920  Biso   1.000  H 
  C66      1.0000 0.24210  0.30850  0.34890  Biso   1.000  C 
  C67      1.0000 0.17100  0.33240  0.31820  Biso   1.000  C 
  C68      1.0000 0.17010  0.39820  0.36930  Biso   1.000  C 
  H49      1.0000 0.12310  0.41420  0.35040  Biso   1.000  H 
  C69      1.0000 0.23540  0.43780  0.44450  Biso   1.000  C 
  H50      1.0000 0.23370  0.48110  0.47640  Biso   1.000  H 
  C70      1.0000 0.30700  0.41380  0.47500  Biso   1.000  C 
  N5       1.0000 0.37240  0.45450  0.55580  Biso   1.000  N 
  C71      1.0000 0.41820  0.41300  0.59360  Biso   1.000  C 
  C72      1.0000 0.52490  0.45820  0.63660  Biso   1.000  C 
  H51      1.0000 0.56430  0.51700  0.64370  Biso   1.000  H 
  C73      1.0000 0.56870  0.41440  0.66710  Biso   1.000  C 
  C74      1.0000 0.51230  0.32700  0.65800  Biso   1.000  C 
  C75      1.0000 0.55600  0.27860  0.68540  Biso   1.000  C 
  C76      1.0000 0.50010  0.19290  0.67370  Biso   1.000  C 
  C77      1.0000 0.39310  0.14680  0.63140  Biso   1.000  C 
  H52      1.0000 0.35460  0.08730  0.62160  Biso   1.000  H 
  C78      1.0000 0.34780  0.19230  0.60510  Biso   1.000  C 
  H53      1.0000 0.27810  0.16360  0.57970  Biso   1.000  H 
  C79      1.0000 0.40570  0.28050  0.61650  Biso   1.000  C 
  C80      1.0000 0.36250  0.32770  0.58700  Biso   1.000  C 
  H54      1.0000 0.29290  0.29920  0.56180  Biso   1.000  H 
  C81      1.0000 0.54470  0.14390  0.70670  Biso   1.000  C 
  O10      1.0000 0.64220  0.18320  0.73361  Biso   1.000  O 
  Zn4      1.0000 0.69569  0.12127  0.78718  Biso   1.000  Zn
  O11      1.0000 0.68480  0.13841  0.89197  Biso   1.000  O 
  C82      1.0000 0.73040  0.20920  0.94880  Biso   1.000  C 
  C83      1.0000 0.69030  0.26830  0.94650  Biso   1.000  C 
  C84      1.0000 0.59600  0.23870  0.89130  Biso   1.000  C 
  H55      1.0000 0.55710  0.18100  0.85880  Biso   1.000  H 
  C85      1.0000 0.55800  0.29450  0.88360  Biso   1.000  C 
  C86      1.0000 0.46020  0.26440  0.82630  Biso   1.000  C 
  H56      1.0000 0.42010  0.20650  0.79430  Biso   1.000  H 
  C87      1.0000 0.42600  0.31930  0.81840  Biso   1.000  C 
  H57      1.0000 0.36330  0.29920  0.77980  Biso   1.000  H 
  C88      1.0000 0.48440  0.40780  0.86840  Biso   1.000  C 
  N6       1.0000 0.44160  0.46100  0.85730  Biso   1.000  N 
  C89      1.0000 0.34430  0.42770  0.85660  Biso   1.000  C 
  C90      1.0000 0.27500  0.44520  0.80800  Biso   1.000  C 
  H58      1.0000 0.29580  0.48250  0.78010  Biso   1.000  H 
  C91      1.0000 0.17880  0.40750  0.80270  Biso   1.000  C 
  H59      1.0000 0.13440  0.41980  0.77110  Biso   1.000  H 
  C92      1.0000 0.14450  0.35080  0.84330  Biso   1.000  C 
  C93      1.0000 0.21340  0.33630  0.89460  Biso   1.000  C 
  C94      1.0000 0.18060  0.28130  0.93710  Biso   1.000  C 
  C95      1.0000 0.08370  0.23910  0.92830  Biso   1.000  C 
  H60      1.0000 0.06360  0.20250  0.95690  Biso   1.000  H 
  C96      1.0000 0.01240  0.25040  0.87560  Biso   1.000  C 
  C97      1.0000 0.04180  0.30470  0.83480  Biso   1.000  C 
  H61      1.0000 0.99460  0.31220  0.80060  Biso   1.000  H 
  C98      1.0000 0.90410  0.19710  0.86250  Biso   1.000  C 
  O12      1.0000 0.88200  0.14570  0.89920  Biso   1.000  O 
  Zn5      1.0000 0.84656  0.13788  0.98964  Biso   1.000  Zn
  O13      1.0000 0.96300  0.19460  0.08828  Biso   1.000  O 
  O14      1.0000 0.80780  0.22856  0.00602  Biso   1.000  O 
  O15      1.0000 0.74500  0.02330  0.98010  Biso   1.000  O 
  C99      1.0000 0.77100  0.96870  0.96540  Biso   1.000  C 
  C100     1.0000 0.69600  0.87540  0.95260  Biso   1.000  C 
  C101     1.0000 0.61880  0.85500  0.97590  Biso   1.000  C 
  C102     1.0000 0.54940  0.76890  0.96460  Biso   1.000  C 
  H62      1.0000 0.49850  0.75620  0.98270  Biso   1.000  H 
  C103     1.0000 0.55790  0.70180  0.92560  Biso   1.000  C 
  C104     1.0000 0.64060  0.72480  0.90110  Biso   1.000  C 
  C105     1.0000 0.70990  0.81270  0.91730  Biso   1.000  C 
  H63      1.0000 0.76510  0.82830  0.90400  Biso   1.000  H 
  C106     1.0000 0.64960  0.65990  0.86130  Biso   1.000  C 
  H64      1.0000 0.70170  0.67500  0.84420  Biso   1.000  H 
  C107     1.0000 0.58560  0.57640  0.84690  Biso   1.000  C 
  H65      1.0000 0.59300  0.53420  0.81930  Biso   1.000  H 
  C108     1.0000 0.50540  0.55060  0.87340  Biso   1.000  C 
  C109     1.0000 0.49230  0.61250  0.91130  Biso   1.000  C 
  H66      1.0000 0.43970  0.59580  0.92790  Biso   1.000  H 
  H67      1.0000 0.61180  0.89950  0.00000  Biso   1.000  H 
  O16      1.0000 0.85070  0.98880  0.95480  Biso   1.000  O 
  O17      1.0000 0.84030  0.20221  0.81180  Biso   1.000  O 
  H68      1.0000 0.22680  0.27360  0.97230  Biso   1.000  H 
  C110     1.0000 0.31420  0.37710  0.90010  Biso   1.000  C 
  H69      1.0000 0.36050  0.36880  0.93450  Biso   1.000  H 
  C111     1.0000 0.57700  0.43760  0.92410  Biso   1.000  C 
  H70      1.0000 0.61500  0.49530  0.95650  Biso   1.000  H 
  C112     1.0000 0.61690  0.38200  0.93360  Biso   1.000  C 
  C113     1.0000 0.71050  0.40980  0.99120  Biso   1.000  C 
  C114     1.0000 0.74760  0.35530  0.99830  Biso   1.000  C 
  H71      1.0000 0.81020  0.37530  0.03700  Biso   1.000  H 
  H72      1.0000 0.74850  0.46660  0.02560  Biso   1.000  H 
  O18      1.0000 0.64090  0.99530  0.76720  Biso   1.000  O 
  C115     1.0000 0.63700  0.97110  0.70120  Biso   1.000  C 
  C116     1.0000 0.58810  0.87520  0.66290  Biso   1.000  C 
  C117     1.0000 0.55530  0.81860  0.70130  Biso   1.000  C 
  H73      1.0000 0.56520  0.84040  0.75270  Biso   1.000  H 
  C118     1.0000 0.50590  0.72590  0.66530  Biso   1.000  C 
  C119     1.0000 0.47490  0.66470  0.70550  Biso   1.000  C 
  H74      1.0000 0.48470  0.68500  0.75710  Biso   1.000  H 
  C120     1.0000 0.43170  0.57780  0.67020  Biso   1.000  C 
  H75      1.0000 0.41280  0.53940  0.69760  Biso   1.000  H 
  C121     1.0000 0.41560  0.54630  0.59120  Biso   1.000  C 
  C122     1.0000 0.44260  0.60160  0.55130  Biso   1.000  C 
  H76      1.0000 0.43140  0.58000  0.49950  Biso   1.000  H 
  C123     1.0000 0.48870  0.69370  0.58790  Biso   1.000  C 
  C124     1.0000 0.52400  0.75410  0.54890  Biso   1.000  C 
  H77      1.0000 0.51490  0.73350  0.49750  Biso   1.000  H 
  C125     1.0000 0.57110  0.84180  0.58510  Biso   1.000  C 
  H78      1.0000 0.59210  0.87970  0.55760  Biso   1.000  H 
  O19      1.0000 0.67230  0.02030  0.66640  Biso   1.000  O 
  O20      1.0000 0.49380  0.07320  0.71190  Biso   1.000  O 
  H79      1.0000 0.62530  0.30700  0.71240  Biso   1.000  H 
  H80      1.0000 0.63810  0.44410  0.69470  Biso   1.000  H 
  C126     1.0000 0.31070  0.35260  0.42810  Biso   1.000  C 
  H81      1.0000 0.35950  0.33880  0.44790  Biso   1.000  H 
  C127     1.0000 0.10250  0.28750  0.23880  Biso   1.000  C 
  H82      1.0000 0.05460  0.30180  0.21800  Biso   1.000  H 
  O21      1.0000 0.94870  0.86600  0.93638  Biso   1.000  O 
  O22      1.0000 0.25500  0.97670  0.01990  Biso   1.000  O 
  H83      1.0000 0.23490  0.17170  0.09600  Biso   1.000  H 
  H84      1.0000 0.40700  0.46580  0.18070  Biso   1.000  H 
  H85      1.0000 0.63950  0.63120  0.06550  Biso   1.000  H 
  C128     1.0000 0.58180  0.58700  0.40640  Biso   1.000  C 
  C129     1.0000 0.47510  0.54180  0.36340  Biso   1.000  C 
  H86      1.0000 0.43570  0.48300  0.35630  Biso   1.000  H 
  C130     1.0000 0.43130  0.58560  0.33290  Biso   1.000  C 
  H87      1.0000 0.36190  0.55590  0.30530  Biso   1.000  H 
  C131     1.0000 0.48770  0.67300  0.34200  Biso   1.000  C 
  C132     1.0000 0.44400  0.72140  0.31460  Biso   1.000  C 
  H88      1.0000 0.37470  0.69300  0.28760  Biso   1.000  H 
  C133     1.0000 0.49990  0.80710  0.32630  Biso   1.000  C 
  C134     1.0000 0.60690  0.85320  0.36860  Biso   1.000  C 
  H89      1.0000 0.64540  0.91270  0.37840  Biso   1.000  H 
  C135     1.0000 0.65220  0.80770  0.39490  Biso   1.000  C 
  H90      1.0000 0.72190  0.83640  0.42030  Biso   1.000  H 
  C136     1.0000 0.59430  0.71950  0.38350  Biso   1.000  C 
  C137     1.0000 0.63750  0.67230  0.41300  Biso   1.000  C 
  H91      1.0000 0.70710  0.70080  0.43820  Biso   1.000  H 
  C138     1.0000 0.45530  0.85610  0.29330  Biso   1.000  C 
  O23      1.0000 0.35780  0.81680  0.26639  Biso   1.000  O 
  O24      1.0000 0.50620  0.92680  0.28810  Biso   1.000  O 
  C139     1.0000 0.55740  0.39840  0.44870  Biso   1.000  C 
  H92      1.0000 0.56860  0.42000  0.50050  Biso   1.000  H 
  C140     1.0000 0.51130  0.30630  0.41210  Biso   1.000  C 
  C141     1.0000 0.47600  0.24590  0.45110  Biso   1.000  C 
  C142     1.0000 0.42890  0.15820  0.41490  Biso   1.000  C 
  H93      1.0000 0.40790  0.12030  0.44240  Biso   1.000  H 
  H94      1.0000 0.48510  0.26650  0.50250  Biso   1.000  H 
  O25      1.0000 0.35910  0.00470  0.23280  Biso   1.000  O 
  O26      1.0000 0.32770  0.97970  0.33360  Biso   1.000  O 
