data_image0
_cell_length_a       13.9812
_cell_length_b       14.7218
_cell_length_c       15.0185
_cell_angle_alpha    103.264
_cell_angle_beta     92.471
_cell_angle_gamma    110.865

_symmetry_space_group_name_H-M    "P 1"
_symmetry_int_tables_number       1

loop_
  _symmetry_equiv_pos_as_xyz
  'x, y, z'

loop_
  _atom_site_label
  _atom_site_occupancy
  _atom_site_fract_x
  _atom_site_fract_y
  _atom_site_fract_z
  _atom_site_thermal_displace_type
  _atom_site_B_iso_or_equiv
  _atom_site_type_symbol
  Cd1      1.0000 0.82097  0.49863  0.05465  Biso   1.000  Cd
  O1       1.0000 0.72750  0.38570  0.11910  Biso   1.000  O 
  P1       1.0000 0.75099  0.30018  0.14365  Biso   1.000  P 
  O2       1.0000 0.71570  0.28010  0.23400  Biso   1.000  O 
  Cd2      1.0000 0.58029  0.24942  0.30947  Biso   1.000  Cd
  C1       1.0000 0.46230  0.08480  0.17030  Biso   1.000  C 
  O3       1.0000 0.46140  0.16590  0.15960  Biso   1.000  O 
  O4       1.0000 0.50740  0.07890  0.24390  Biso   1.000  O 
  C2       1.0000 0.41130  0.98970  0.09400  Biso   1.000  C 
  C3       1.0000 0.40190  0.89560  0.10610  Biso   1.000  C 
  H1       1.0000 0.42800  0.89130  0.16460  Biso   1.000  H 
  C4       1.0000 0.35610  0.80870  0.03500  Biso   1.000  C 
  H2       1.0000 0.35180  0.74490  0.04400  Biso   1.000  H 
  C5       1.0000 0.31620  0.81310  0.94930  Biso   1.000  C 
  C6       1.0000 0.32740  0.90720  0.93620  Biso   1.000  C 
  H3       1.0000 0.30300  0.91170  0.87720  Biso   1.000  H 
  C7       1.0000 0.37400  0.99450  0.00860  Biso   1.000  C 
  H4       1.0000 0.38040  0.05870  0.99940  Biso   1.000  H 
  P2       1.0000 0.24901  0.69982  0.85635  Biso   1.000  P 
  O5       1.0000 0.27250  0.61430  0.88090  Biso   1.000  O 
  Cd3      1.0000 0.17903  0.50137  0.94535  Biso   1.000  Cd
  N1       1.0000 0.19380  0.34970  0.86610  Biso   1.000  N 
  C8       1.0000 0.27300  0.33000  0.90040  Biso   1.000  C 
  C9       1.0000 0.33520  0.39430  0.98350  Biso   1.000  C 
  C10      1.0000 0.41610  0.37360  0.02360  Biso   1.000  C 
  C11      1.0000 0.47290  0.44170  0.10460  Biso   1.000  C 
  C12      1.0000 0.45320  0.52560  0.14730  Biso   1.000  C 
  C13      1.0000 0.37260  0.54070  0.10350  Biso   1.000  C 
  H5       1.0000 0.35750  0.59890  0.13070  Biso   1.000  H 
  N2       1.0000 0.31650  0.47850  0.02490  Biso   1.000  N 
  H6       1.0000 0.49310  0.57110  0.20430  Biso   1.000  H 
  H7       1.0000 0.52930  0.43010  0.13200  Biso   1.000  H 
  C14      1.0000 0.42840  0.28110  0.97440  Biso   1.000  C 
  C15      1.0000 0.37480  0.22280  0.89890  Biso   1.000  C 
  H8       1.0000 0.39230  0.16710  0.86850  Biso   1.000  H 
  C16      1.0000 0.29300  0.24290  0.85650  Biso   1.000  C 
  C17      1.0000 0.23020  0.18090  0.77680  Biso   1.000  C 
  H9       1.0000 0.24180  0.12210  0.74490  Biso   1.000  H 
  C18      1.0000 0.14910  0.19920  0.73870  Biso   1.000  C 
  H10      1.0000 0.10450  0.15640  0.68290  Biso   1.000  H 
  C19      1.0000 0.13390  0.28730  0.78970  Biso   1.000  C 
  H11      1.0000 0.07710  0.30200  0.76760  Biso   1.000  H 
  H12      1.0000 0.47900  0.26320  0.00370  Biso   1.000  H 
  O6       1.0000 0.01960  0.42950  0.87120  Biso   1.000  O 
  P3       1.0000 0.91314  0.42934  0.88145  Biso   1.000  P 
  O7       1.0000 0.85850  0.36660  0.94650  Biso   1.000  O 
  Cd4      1.0000 0.95777  0.32035  0.03661  Biso   1.000  Cd
  O8       1.0000 0.86540  0.31620  0.14790  Biso   1.000  O 
  O9       1.0000 0.09140  0.46590  0.08400  Biso   1.000  O 
  P4       1.0000 0.08686  0.57066  0.11855  Biso   1.000  P 
  C20      1.0000 0.16210  0.62790  0.23270  Biso   1.000  C 
  C21      1.0000 0.12520  0.58900  0.30420  Biso   1.000  C 
  H13      1.0000 0.06130  0.53200  0.29350  Biso   1.000  H 
  C22      1.0000 0.18350  0.63260  0.39350  Biso   1.000  C 
  H14      1.0000 0.15780  0.60670  0.44450  Biso   1.000  H 
  C23      1.0000 0.27530  0.71170  0.40900  Biso   1.000  C 
  C24      1.0000 0.33760  0.75050  0.50500  Biso   1.000  C 
  O10      1.0000 0.30440  0.70830  0.56430  Biso   1.000  O 
  Cd5      1.0000 0.41971  0.75058  0.69053  Biso   1.000  Cd
  N3       1.0000 0.41150  0.58350  0.66570  Biso   1.000  N 
  C25      1.0000 0.33060  0.50780  0.67600  Biso   1.000  C 
  C26      1.0000 0.32360  0.40700  0.65510  Biso   1.000  C 
  C27      1.0000 0.40370  0.38790  0.62670  Biso   1.000  C 
  H15      1.0000 0.40050  0.31980  0.61020  Biso   1.000  H 
  C28      1.0000 0.49910  0.46660  0.61880  Biso   1.000  C 
  C29      1.0000 0.49490  0.56580  0.63590  Biso   1.000  C 
  C30      1.0000 0.58060  0.64920  0.62060  Biso   1.000  C 
  C31      1.0000 0.67030  0.63140  0.59370  Biso   1.000  C 
  C32      1.0000 0.67060  0.53300  0.58010  Biso   1.000  C 
  H16      1.0000 0.73140  0.52140  0.56260  Biso   1.000  H 
  C33      1.0000 0.59730  0.45950  0.59150  Biso   1.000  C 
  H17      1.0000 0.59980  0.39360  0.58090  Biso   1.000  H 
  C34      1.0000 0.74780  0.71550  0.57850  Biso   1.000  C 
  H18      1.0000 0.81070  0.71000  0.55950  Biso   1.000  H 
  C35      1.0000 0.73950  0.80410  0.58890  Biso   1.000  C 
  H19      1.0000 0.79420  0.86140  0.57950  Biso   1.000  H 
  C36      1.0000 0.64640  0.81300  0.61570  Biso   1.000  C 
  H20      1.0000 0.63880  0.87650  0.62230  Biso   1.000  H 
  N4       1.0000 0.57040  0.73850  0.63200  Biso   1.000  N 
  H21      1.0000 0.26330  0.35370  0.66310  Biso   1.000  H 
  H22      1.0000 0.27230  0.52190  0.69710  Biso   1.000  H 
  O11      1.0000 0.28430  0.71990  0.76600  Biso   1.000  O 
  C37      1.0000 0.53770  0.91520  0.82970  Biso   1.000  C 
  C38      1.0000 0.58870  0.01030  0.90600  Biso   1.000  C 
  C39      1.0000 0.59810  0.10440  0.89390  Biso   1.000  C 
  H23      1.0000 0.57200  0.10870  0.83540  Biso   1.000  H 
  C40      1.0000 0.64390  0.19130  0.96500  Biso   1.000  C 
  H24      1.0000 0.64820  0.25510  0.95600  Biso   1.000  H 
  C41      1.0000 0.68380  0.18690  0.05070  Biso   1.000  C 
  C42      1.0000 0.67260  0.09280  0.06380  Biso   1.000  C 
  H25      1.0000 0.69700  0.08830  0.12280  Biso   1.000  H 
  C43      1.0000 0.62600  0.00550  0.99140  Biso   1.000  C 
  H26      1.0000 0.61960  0.94130  0.00060  Biso   1.000  H 
  O12      1.0000 0.53860  0.83410  0.84040  Biso   1.000  O 
  O13      1.0000 0.49260  0.92110  0.75610  Biso   1.000  O 
  O14      1.0000 0.42310  0.82160  0.51800  Biso   1.000  O 
  C44      1.0000 0.31160  0.74920  0.33720  Biso   1.000  C 
  H27      1.0000 0.37620  0.80550  0.34740  Biso   1.000  H 
  C45      1.0000 0.25450  0.70710  0.24940  Biso   1.000  C 
  H28      1.0000 0.28110  0.73400  0.19910  Biso   1.000  H 
  O15      1.0000 0.14150  0.63340  0.05350  Biso   1.000  O 
  Cd6      1.0000 0.04223  0.67965  0.96339  Biso   1.000  Cd
  O16      1.0000 0.13460  0.68380  0.85210  Biso   1.000  O 
  N5       1.0000 0.06660  0.82320  0.07840  Biso   1.000  N 
  C46      1.0000 0.14030  0.86370  0.15170  Biso   1.000  C 
  C47      1.0000 0.14910  0.94740  0.21950  Biso   1.000  C 
  H29      1.0000 0.20050  0.97210  0.27290  Biso   1.000  H 
  C48      1.0000 0.08310  0.99520  0.21180  Biso   1.000  C 
  C49      1.0000 0.00460  0.95830  0.13610  Biso   1.000  C 
  C50      1.0000 0.99960  0.87070  0.06940  Biso   1.000  C 
  C51      1.0000 0.92120  0.82850  0.99110  Biso   1.000  C 
  N6       1.0000 0.91630  0.74240  0.92900  Biso   1.000  N 
  C52      1.0000 0.84260  0.70050  0.85850  Biso   1.000  C 
  H30      1.0000 0.83860  0.63900  0.81630  Biso   1.000  H 
  C53      1.0000 0.76710  0.74310  0.84400  Biso   1.000  C 
  H31      1.0000 0.71480  0.71200  0.79100  Biso   1.000  H 
  C54      1.0000 0.77460  0.83060  0.90780  Biso   1.000  C 
  H32      1.0000 0.72480  0.85990  0.89880  Biso   1.000  H 
  C55      1.0000 0.84900  0.87430  0.98170  Biso   1.000  C 
  C56      1.0000 0.86030  0.96480  0.05030  Biso   1.000  C 
  H33      1.0000 0.81320  0.99770  0.04380  Biso   1.000  H 
  C57      1.0000 0.93420  0.00370  0.12330  Biso   1.000  C 
  H34      1.0000 0.93940  0.06400  0.16810  Biso   1.000  H 
  H35      1.0000 0.08920  0.05470  0.25810  Biso   1.000  H 
  H36      1.0000 0.18910  0.83240  0.15690  Biso   1.000  H 
  O17      1.0000 0.90860  0.53410  0.91600  Biso   1.000  O 
  O18      1.0000 0.98040  0.57050  0.12880  Biso   1.000  O 
  N7       1.0000 0.08370  0.25760  0.07100  Biso   1.000  N 
  C58      1.0000 0.15740  0.29950  0.14150  Biso   1.000  C 
  H37      1.0000 0.16140  0.36100  0.18370  Biso   1.000  H 
  C59      1.0000 0.23290  0.25690  0.15600  Biso   1.000  C 
  H38      1.0000 0.28520  0.28800  0.20900  Biso   1.000  H 
  C60      1.0000 0.22540  0.16940  0.09220  Biso   1.000  C 
  H39      1.0000 0.27520  0.14010  0.10120  Biso   1.000  H 
  C61      1.0000 0.15100  0.12570  0.01830  Biso   1.000  C 
  C62      1.0000 0.07880  0.17150  0.00890  Biso   1.000  C 
  C63      1.0000 0.00040  0.12930  0.93060  Biso   1.000  C 
  N8       1.0000 0.93340  0.17680  0.92160  Biso   1.000  N 
  C64      1.0000 0.85970  0.13630  0.84830  Biso   1.000  C 
  H40      1.0000 0.81090  0.16760  0.84310  Biso   1.000  H 
  C65      1.0000 0.85090  0.05260  0.78050  Biso   1.000  C 
  C66      1.0000 0.91690  0.00480  0.78820  Biso   1.000  C 
  C67      1.0000 0.99540  0.04170  0.86390  Biso   1.000  C 
  C68      1.0000 0.06580  0.99630  0.87670  Biso   1.000  C 
  H41      1.0000 0.06060  0.93600  0.83190  Biso   1.000  H 
  C69      1.0000 0.13970  0.03520  0.94970  Biso   1.000  C 
  H42      1.0000 0.18680  0.00230  0.95620  Biso   1.000  H 
  H43      1.0000 0.91080  0.94530  0.74190  Biso   1.000  H 
  H44      1.0000 0.79950  0.02790  0.72710  Biso   1.000  H 
  C70      1.0000 0.83790  0.37210  0.76730  Biso   1.000  C 
  C71      1.0000 0.74550  0.29290  0.75060  Biso   1.000  C 
  C72      1.0000 0.68840  0.25080  0.66280  Biso   1.000  C 
  C73      1.0000 0.72470  0.28830  0.59100  Biso   1.000  C 
  C74      1.0000 0.66240  0.24950  0.49500  Biso   1.000  C 
  O19      1.0000 0.69560  0.29170  0.43570  Biso   1.000  O 
  O20      1.0000 0.57690  0.17840  0.48200  Biso   1.000  O 
  C75      1.0000 0.81650  0.36740  0.60650  Biso   1.000  C 
  H45      1.0000 0.84220  0.39330  0.55550  Biso   1.000  H 
  C76      1.0000 0.87480  0.41100  0.69580  Biso   1.000  C 
  H46      1.0000 0.93870  0.46800  0.70650  Biso   1.000  H 
  H47      1.0000 0.62380  0.19450  0.65260  Biso   1.000  H 
  H48      1.0000 0.71890  0.26600  0.80090  Biso   1.000  H 
  N9       1.0000 0.42960  0.26150  0.36800  Biso   1.000  N 
  C77      1.0000 0.41940  0.35080  0.37940  Biso   1.000  C 
  C78      1.0000 0.32970  0.36860  0.40630  Biso   1.000  C 
  C79      1.0000 0.32940  0.46700  0.41990  Biso   1.000  C 
  C80      1.0000 0.40270  0.54050  0.40850  Biso   1.000  C 
  H49      1.0000 0.40020  0.60640  0.41910  Biso   1.000  H 
  C81      1.0000 0.50090  0.53340  0.38120  Biso   1.000  C 
  C82      1.0000 0.50510  0.43420  0.36410  Biso   1.000  C 
  N10      1.0000 0.58850  0.41650  0.33430  Biso   1.000  N 
  C83      1.0000 0.66940  0.49220  0.32400  Biso   1.000  C 
  H50      1.0000 0.72770  0.47810  0.30290  Biso   1.000  H 
  C84      1.0000 0.67640  0.59300  0.34490  Biso   1.000  C 
  H51      1.0000 0.73670  0.64630  0.33690  Biso   1.000  H 
  C85      1.0000 0.59630  0.61210  0.37330  Biso   1.000  C 
  H52      1.0000 0.59950  0.68020  0.38980  Biso   1.000  H 
  H53      1.0000 0.26860  0.47860  0.43740  Biso   1.000  H 
  C86      1.0000 0.25220  0.28450  0.42150  Biso   1.000  C 
  C87      1.0000 0.26050  0.19590  0.41110  Biso   1.000  C 
  C88      1.0000 0.35360  0.18700  0.38430  Biso   1.000  C 
  H54      1.0000 0.36120  0.12350  0.37770  Biso   1.000  H 
  H55      1.0000 0.20580  0.13860  0.42050  Biso   1.000  H 
  H56      1.0000 0.18930  0.29000  0.44050  Biso   1.000  H 
  N11      1.0000 0.80620  0.65030  0.13390  Biso   1.000  N 
  C89      1.0000 0.86610  0.71270  0.21030  Biso   1.000  C 
  C90      1.0000 0.85090  0.80080  0.26130  Biso   1.000  C 
  C91      1.0000 0.76980  0.81910  0.22320  Biso   1.000  C 
  C92      1.0000 0.70700  0.75710  0.14350  Biso   1.000  C 
  C93      1.0000 0.62520  0.77720  0.10110  Biso   1.000  C 
  H57      1.0000 0.60770  0.83290  0.13150  Biso   1.000  H 
  C94      1.0000 0.57160  0.71890  0.02560  Biso   1.000  C 
  C95      1.0000 0.58390  0.62640  0.97640  Biso   1.000  C 
  C96      1.0000 0.52710  0.55830  0.89540  Biso   1.000  C 
  H58      1.0000 0.47070  0.56990  0.86800  Biso   1.000  H 
  C97      1.0000 0.54680  0.47440  0.85270  Biso   1.000  C 
  C98      1.0000 0.62740  0.45930  0.89650  Biso   1.000  C 
  H59      1.0000 0.64250  0.40110  0.86930  Biso   1.000  H 
  N12      1.0000 0.68350  0.52150  0.97510  Biso   1.000  N 
  C99      1.0000 0.66480  0.60570  0.01650  Biso   1.000  C 
  C100     1.0000 0.72700  0.67000  0.09960  Biso   1.000  C 
  H60      1.0000 0.50690  0.42890  0.79570  Biso   1.000  H 
  H61      1.0000 0.52100  0.73680  0.99630  Biso   1.000  H 
  H62      1.0000 0.75820  0.87790  0.25510  Biso   1.000  H 
  H63      1.0000 0.89550  0.84360  0.31710  Biso   1.000  H 
  H64      1.0000 0.92290  0.69800  0.23240  Biso   1.000  H 
