data_image0
_cell_length_a       11.2598
_cell_length_b       14.2054
_cell_length_c       15.6318
_cell_angle_alpha    90
_cell_angle_beta     90
_cell_angle_gamma    90

_symmetry_space_group_name_H-M    "P 1"
_symmetry_int_tables_number       1

loop_
  _symmetry_equiv_pos_as_xyz
  'x, y, z'

loop_
  _atom_site_label
  _atom_site_occupancy
  _atom_site_fract_x
  _atom_site_fract_y
  _atom_site_fract_z
  _atom_site_thermal_displace_type
  _atom_site_B_iso_or_equiv
  _atom_site_type_symbol
  Zn1      1.0000 0.83127  0.46309  0.59601  Biso   1.000  Zn
  Zn2      1.0000 0.66873  0.53691  0.09601  Biso   1.000  Zn
  Zn3      1.0000 0.16873  0.96309  0.90399  Biso   1.000  Zn
  Zn4      1.0000 0.33127  0.03691  0.40399  Biso   1.000  Zn
  O1       1.0000 0.61670  0.22240  0.04720  Biso   1.000  O 
  O2       1.0000 0.88330  0.77760  0.54720  Biso   1.000  O 
  O3       1.0000 0.38330  0.72240  0.45280  Biso   1.000  O 
  O4       1.0000 0.11670  0.27760  0.95280  Biso   1.000  O 
  N1       1.0000 0.13940  0.38628  0.46245  Biso   1.000  N 
  N2       1.0000 0.36060  0.61372  0.96245  Biso   1.000  N 
  N3       1.0000 0.86060  0.88628  0.03755  Biso   1.000  N 
  N4       1.0000 0.63940  0.11372  0.53755  Biso   1.000  N 
  N5       1.0000 0.71960  0.44870  0.49430  Biso   1.000  N 
  N6       1.0000 0.78040  0.55130  0.99430  Biso   1.000  N 
  N7       1.0000 0.28040  0.94870  0.00570  Biso   1.000  N 
  N8       1.0000 0.21960  0.05130  0.50570  Biso   1.000  N 
  N9       1.0000 0.56330  0.42866  0.41320  Biso   1.000  N 
  N10      1.0000 0.93670  0.57134  0.91320  Biso   1.000  N 
  N11      1.0000 0.43670  0.92866  0.08680  Biso   1.000  N 
  N12      1.0000 0.06330  0.07134  0.58680  Biso   1.000  N 
  N13      1.0000 0.98420  0.41125  0.54405  Biso   1.000  N 
  N14      1.0000 0.51580  0.58875  0.04405  Biso   1.000  N 
  N15      1.0000 0.01580  0.91125  0.95595  Biso   1.000  N 
  N16      1.0000 0.48420  0.08875  0.45595  Biso   1.000  N 
  O5       1.0000 0.80280  0.36370  0.17890  Biso   1.000  O 
  O6       1.0000 0.69720  0.63630  0.67890  Biso   1.000  O 
  O7       1.0000 0.19720  0.86370  0.32110  Biso   1.000  O 
  O8       1.0000 0.30280  0.13630  0.82110  Biso   1.000  O 
  O9       1.0000 0.63640  0.40178  0.11100  Biso   1.000  O 
  O10      1.0000 0.86360  0.59822  0.61100  Biso   1.000  O 
  O11      1.0000 0.36360  0.90178  0.38900  Biso   1.000  O 
  O12      1.0000 0.13640  0.09822  0.88900  Biso   1.000  O 
  C1       1.0000 0.05490  0.44900  0.48550  Biso   1.000  C 
  C2       1.0000 0.44510  0.55100  0.98550  Biso   1.000  C 
  C3       1.0000 0.94510  0.94900  0.01450  Biso   1.000  C 
  C4       1.0000 0.55490  0.05100  0.51450  Biso   1.000  C 
  C5       1.0000 0.42200  0.44440  0.29620  Biso   1.000  C 
  C6       1.0000 0.07800  0.55560  0.79620  Biso   1.000  C 
  C7       1.0000 0.57800  0.94440  0.20380  Biso   1.000  C 
  C8       1.0000 0.92200  0.05560  0.70380  Biso   1.000  C 
  H1       1.0000 0.48524  0.45901  0.26022  Biso   1.000  H 
  H2       1.0000 0.01476  0.54098  0.76022  Biso   1.000  H 
  H3       1.0000 0.51476  0.95901  0.23978  Biso   1.000  H 
  H4       1.0000 0.98524  0.04099  0.73978  Biso   1.000  H 
  C9       1.0000 0.12250  0.30640  0.51080  Biso   1.000  C 
  C10      1.0000 0.37750  0.69360  0.01080  Biso   1.000  C 
  C11      1.0000 0.87750  0.80640  0.98920  Biso   1.000  C 
  C12      1.0000 0.62250  0.19360  0.48920  Biso   1.000  C 
  H5       1.0000 0.16905  0.25230  0.51012  Biso   1.000  H 
  H6       1.0000 0.33095  0.74770  0.01012  Biso   1.000  H 
  H7       1.0000 0.83095  0.75230  0.98988  Biso   1.000  H 
  H8       1.0000 0.66905  0.24770  0.48988  Biso   1.000  H 
  C13      1.0000 0.60310  0.45660  0.49130  Biso   1.000  C 
  C14      1.0000 0.89690  0.54340  0.99130  Biso   1.000  C 
  C15      1.0000 0.39690  0.95660  0.00870  Biso   1.000  C 
  C16      1.0000 0.10310  0.04340  0.50870  Biso   1.000  C 
  C17      1.0000 0.44320  0.42570  0.38200  Biso   1.000  C 
  C18      1.0000 0.05680  0.57430  0.88200  Biso   1.000  C 
  C19      1.0000 0.55680  0.92570  0.11800  Biso   1.000  C 
  C20      1.0000 0.94320  0.07430  0.61800  Biso   1.000  C 
  C21      1.0000 0.23580  0.40360  0.40430  Biso   1.000  C 
  C22      1.0000 0.26420  0.59640  0.90430  Biso   1.000  C 
  C23      1.0000 0.76420  0.90360  0.09570  Biso   1.000  C 
  C24      1.0000 0.73580  0.09640  0.59570  Biso   1.000  C 
  C25      1.0000 0.02570  0.32160  0.55920  Biso   1.000  C 
  C26      1.0000 0.47430  0.67840  0.05920  Biso   1.000  C 
  C27      1.0000 0.97430  0.82160  0.94080  Biso   1.000  C 
  C28      1.0000 0.52570  0.17840  0.44080  Biso   1.000  C 
  H9       1.0000 0.99207  0.27850  0.59686  Biso   1.000  H 
  H10      1.0000 0.50793  0.72150  0.09686  Biso   1.000  H 
  H11      1.0000 0.00793  0.77850  0.90314  Biso   1.000  H 
  H12      1.0000 0.49207  0.22150  0.40314  Biso   1.000  H 
  O13      1.0000 0.82460  0.39970  0.70760  Biso   1.000  O 
  O14      1.0000 0.67540  0.60030  0.20760  Biso   1.000  O 
  O15      1.0000 0.17540  0.89970  0.79240  Biso   1.000  O 
  O16      1.0000 0.32460  0.10030  0.29240  Biso   1.000  O 
  C29      1.0000 0.30690  0.44160  0.26340  Biso   1.000  C 
  C30      1.0000 0.19310  0.55840  0.76340  Biso   1.000  C 
  C31      1.0000 0.69310  0.94160  0.23660  Biso   1.000  C 
  C32      1.0000 0.80690  0.05840  0.73660  Biso   1.000  C 
  C33      1.0000 0.21410  0.42130  0.31890  Biso   1.000  C 
  C34      1.0000 0.28590  0.57870  0.81890  Biso   1.000  C 
  C35      1.0000 0.78590  0.92130  0.18110  Biso   1.000  C 
  C36      1.0000 0.71410  0.07870  0.68110  Biso   1.000  C 
  H13      1.0000 0.13658  0.41971  0.29838  Biso   1.000  H 
  H14      1.0000 0.36342  0.58029  0.79838  Biso   1.000  H 
  H15      1.0000 0.86342  0.91971  0.20162  Biso   1.000  H 
  H16      1.0000 0.63658  0.08029  0.70162  Biso   1.000  H 
  C37      1.0000 0.35050  0.40290  0.43670  Biso   1.000  C 
  C38      1.0000 0.14950  0.59710  0.93670  Biso   1.000  C 
  C39      1.0000 0.64950  0.90290  0.06330  Biso   1.000  C 
  C40      1.0000 0.85050  0.09710  0.56330  Biso   1.000  C 
  H17      1.0000 0.36486  0.38743  0.49363  Biso   1.000  H 
  H18      1.0000 0.13514  0.61257  0.99363  Biso   1.000  H 
  H19      1.0000 0.63514  0.88743  0.00637  Biso   1.000  H 
  H20      1.0000 0.86486  0.11257  0.50637  Biso   1.000  H 
  C41      1.0000 0.75550  0.41640  0.41530  Biso   1.000  C 
  C42      1.0000 0.74450  0.58360  0.91530  Biso   1.000  C 
  C43      1.0000 0.24450  0.91640  0.08470  Biso   1.000  C 
  C44      1.0000 0.25550  0.08360  0.58470  Biso   1.000  C 
  H21      1.0000 0.83382  0.40502  0.39943  Biso   1.000  H 
  H22      1.0000 0.66618  0.59498  0.89943  Biso   1.000  H 
  H23      1.0000 0.16618  0.90502  0.10057  Biso   1.000  H 
  H24      1.0000 0.33382  0.09498  0.60057  Biso   1.000  H 
  C45      1.0000 0.79250  0.32710  0.87230  Biso   1.000  C 
  C46      1.0000 0.70750  0.67290  0.37230  Biso   1.000  C 
  C47      1.0000 0.20750  0.82710  0.62770  Biso   1.000  C 
  C48      1.0000 0.29250  0.17290  0.12770  Biso   1.000  C 
  H25      1.0000 0.86397  0.35795  0.86196  Biso   1.000  H 
  H26      1.0000 0.63603  0.64205  0.36196  Biso   1.000  H 
  H27      1.0000 0.13603  0.85795  0.63804  Biso   1.000  H 
  H28      1.0000 0.36397  0.14205  0.13804  Biso   1.000  H 
  C49      1.0000 0.68860  0.24000  0.12030  Biso   1.000  C 
  C50      1.0000 0.81140  0.76000  0.62030  Biso   1.000  C 
  C51      1.0000 0.31140  0.74000  0.37970  Biso   1.000  C 
  C52      1.0000 0.18860  0.26000  0.87970  Biso   1.000  C 
  H29      1.0000 0.76394  0.20613  0.11442  Biso   1.000  H 
  H30      1.0000 0.73606  0.79387  0.61442  Biso   1.000  H 
  H31      1.0000 0.23606  0.70613  0.38558  Biso   1.000  H 
  H32      1.0000 0.26394  0.29387  0.88558  Biso   1.000  H 
  C53      1.0000 0.65590  0.25230  0.96930  Biso   1.000  C 
  C54      1.0000 0.84410  0.74770  0.46930  Biso   1.000  C 
  C55      1.0000 0.34410  0.75230  0.53070  Biso   1.000  C 
  C56      1.0000 0.15590  0.24770  0.03070  Biso   1.000  C 
  C57      1.0000 0.66160  0.40390  0.36500  Biso   1.000  C 
  C58      1.0000 0.83840  0.59610  0.86500  Biso   1.000  C 
  C59      1.0000 0.33840  0.90390  0.13500  Biso   1.000  C 
  C60      1.0000 0.16160  0.09610  0.63500  Biso   1.000  C 
  H33      1.0000 0.66182  0.38273  0.30873  Biso   1.000  H 
  H34      1.0000 0.83818  0.61726  0.80873  Biso   1.000  H 
  H35      1.0000 0.33818  0.88273  0.19127  Biso   1.000  H 
  H36      1.0000 0.16182  0.11727  0.69126  Biso   1.000  H 
  C61      1.0000 0.71420  0.34520  0.13800  Biso   1.000  C 
  C62      1.0000 0.78580  0.65480  0.63800  Biso   1.000  C 
  C63      1.0000 0.28580  0.84520  0.36200  Biso   1.000  C 
  C64      1.0000 0.21420  0.15480  0.86200  Biso   1.000  C 
  O17      1.0000 0.66590  0.32870  0.65770  Biso   1.000  O 
  O18      1.0000 0.83410  0.67130  0.15770  Biso   1.000  O 
  O19      1.0000 0.33410  0.82870  0.84230  Biso   1.000  O 
  O20      1.0000 0.16590  0.17130  0.34230  Biso   1.000  O 
  C65      1.0000 0.04670  0.54630  0.45210  Biso   1.000  C 
  C66      1.0000 0.45330  0.45370  0.95210  Biso   1.000  C 
  C67      1.0000 0.95330  0.04630  0.04790  Biso   1.000  C 
  C68      1.0000 0.54670  0.95370  0.54790  Biso   1.000  C 
  H37      1.0000 0.12494  0.57264  0.44754  Biso   1.000  H 
  H38      1.0000 0.37506  0.42736  0.94754  Biso   1.000  H 
  H39      1.0000 0.87506  0.07264  0.05246  Biso   1.000  H 
  H40      1.0000 0.62494  0.92736  0.55246  Biso   1.000  H 
  H41      1.0000 0.99986  0.58383  0.49039  Biso   1.000  H 
  H42      1.0000 0.50014  0.41617  0.99039  Biso   1.000  H 
  H43      1.0000 0.00014  0.08383  0.00961  Biso   1.000  H 
  H44      1.0000 0.49986  0.91617  0.50961  Biso   1.000  H 
  H45      1.0000 0.00998  0.54538  0.39667  Biso   1.000  H 
  H46      1.0000 0.49002  0.45462  0.89667  Biso   1.000  H 
  H47      1.0000 0.99002  0.04538  0.10333  Biso   1.000  H 
  H48      1.0000 0.50998  0.95462  0.60333  Biso   1.000  H 
  C69      1.0000 0.76670  0.29490  0.95470  Biso   1.000  C 
  C70      1.0000 0.73330  0.70510  0.45470  Biso   1.000  C 
  C71      1.0000 0.23330  0.79490  0.54530  Biso   1.000  C 
  C72      1.0000 0.26670  0.20510  0.04530  Biso   1.000  C 
  H49      1.0000 0.82150  0.30143  0.99885  Biso   1.000  H 
  H50      1.0000 0.67850  0.69857  0.49885  Biso   1.000  H 
  H51      1.0000 0.17850  0.80143  0.50115  Biso   1.000  H 
  H52      1.0000 0.32150  0.19857  0.00115  Biso   1.000  H 
  C73      1.0000 0.57890  0.23790  0.90270  Biso   1.000  C 
  C74      1.0000 0.92110  0.76210  0.40270  Biso   1.000  C 
  C75      1.0000 0.42110  0.73790  0.59730  Biso   1.000  C 
  C76      1.0000 0.07890  0.26210  0.09730  Biso   1.000  C 
  H53      1.0000 0.50741  0.20697  0.91244  Biso   1.000  H 
  H54      1.0000 0.99259  0.79302  0.41244  Biso   1.000  H 
  H55      1.0000 0.49259  0.70697  0.58756  Biso   1.000  H 
  H56      1.0000 0.00741  0.29302  0.08756  Biso   1.000  H 
  C77      1.0000 0.60570  0.26820  0.82230  Biso   1.000  C 
  C78      1.0000 0.89430  0.73180  0.32230  Biso   1.000  C 
  C79      1.0000 0.39430  0.76820  0.67770  Biso   1.000  C 
  C80      1.0000 0.10570  0.23180  0.17770  Biso   1.000  C 
  H57      1.0000 0.55178  0.25845  0.77816  Biso   1.000  H 
  H58      1.0000 0.94822  0.74155  0.27816  Biso   1.000  H 
  H59      1.0000 0.44822  0.75845  0.72184  Biso   1.000  H 
  H60      1.0000 0.05178  0.24155  0.22184  Biso   1.000  H 
  C81      1.0000 0.52800  0.49490  0.56140  Biso   1.000  C 
  C82      1.0000 0.97200  0.50510  0.06140  Biso   1.000  C 
  C83      1.0000 0.47200  0.99490  0.93860  Biso   1.000  C 
  C84      1.0000 0.02800  0.00510  0.43860  Biso   1.000  C 
  H61      1.0000 0.49318  0.44379  0.59288  Biso   1.000  H 
  H62      1.0000 0.00682  0.55621  0.09288  Biso   1.000  H 
  H63      1.0000 0.50682  0.94379  0.90712  Biso   1.000  H 
  H64      1.0000 0.99318  0.05621  0.40712  Biso   1.000  H 
  H65      1.0000 0.46620  0.53331  0.53755  Biso   1.000  H 
  H66      1.0000 0.03380  0.46669  0.03755  Biso   1.000  H 
  H67      1.0000 0.53380  0.03331  0.96245  Biso   1.000  H 
  H68      1.0000 0.96620  0.96669  0.46245  Biso   1.000  H 
  H69      1.0000 0.57608  0.53218  0.59912  Biso   1.000  H 
  H70      1.0000 0.92392  0.46782  0.09912  Biso   1.000  H 
  H71      1.0000 0.42392  0.03218  0.90088  Biso   1.000  H 
  H72      1.0000 0.07608  0.96782  0.40088  Biso   1.000  H 
  C85      1.0000 0.61880  0.19960  0.19760  Biso   1.000  C 
  C86      1.0000 0.88120  0.80040  0.69760  Biso   1.000  C 
  C87      1.0000 0.38120  0.69960  0.30240  Biso   1.000  C 
  C88      1.0000 0.11880  0.30040  0.80240  Biso   1.000  C 
  H73      1.0000 0.54836  0.23626  0.20672  Biso   1.000  H 
  H74      1.0000 0.95164  0.76374  0.70672  Biso   1.000  H 
  H75      1.0000 0.45164  0.73626  0.29328  Biso   1.000  H 
  H76      1.0000 0.04836  0.26374  0.79328  Biso   1.000  H 
  H77      1.0000 0.66776  0.20198  0.24784  Biso   1.000  H 
  H78      1.0000 0.83224  0.79802  0.74784  Biso   1.000  H 
  H79      1.0000 0.33224  0.70198  0.25216  Biso   1.000  H 
  H80      1.0000 0.16776  0.29802  0.75216  Biso   1.000  H 
  H81      1.0000 0.59720  0.13546  0.18602  Biso   1.000  H 
  H82      1.0000 0.90280  0.86454  0.68602  Biso   1.000  H 
  H83      1.0000 0.40280  0.63546  0.31398  Biso   1.000  H 
  H84      1.0000 0.09720  0.36454  0.81398  Biso   1.000  H 
  C89      1.0000 0.71220  0.31350  0.80550  Biso   1.000  C 
  C90      1.0000 0.78780  0.68650  0.30550  Biso   1.000  C 
  C91      1.0000 0.28780  0.81350  0.69450  Biso   1.000  C 
  C92      1.0000 0.21220  0.18650  0.19450  Biso   1.000  C 
  C93      1.0000 0.28450  0.46180  0.17050  Biso   1.000  C 
  C94      1.0000 0.21550  0.53820  0.67050  Biso   1.000  C 
  C95      1.0000 0.71550  0.96180  0.32950  Biso   1.000  C 
  C96      1.0000 0.78450  0.03820  0.82950  Biso   1.000  C 
  H85      1.0000 0.27831  0.52851  0.16204  Biso   1.000  H 
  H86      1.0000 0.22169  0.47149  0.66204  Biso   1.000  H 
  H87      1.0000 0.72169  0.02851  0.33796  Biso   1.000  H 
  H88      1.0000 0.77831  0.97149  0.83796  Biso   1.000  H 
  H89      1.0000 0.21179  0.43207  0.15308  Biso   1.000  H 
  H90      1.0000 0.28821  0.56793  0.65308  Biso   1.000  H 
  H91      1.0000 0.78821  0.93207  0.34692  Biso   1.000  H 
  H92      1.0000 0.71179  0.06793  0.84692  Biso   1.000  H 
  H93      1.0000 0.34902  0.43757  0.13688  Biso   1.000  H 
  H94      1.0000 0.15098  0.56243  0.63688  Biso   1.000  H 
  H95      1.0000 0.65098  0.93757  0.36312  Biso   1.000  H 
  H96      1.0000 0.84902  0.06243  0.86312  Biso   1.000  H 
  C97      1.0000 0.73320  0.34950  0.71600  Biso   1.000  C 
  C98      1.0000 0.76680  0.65050  0.21600  Biso   1.000  C 
  C99      1.0000 0.26680  0.84950  0.78400  Biso   1.000  C 
  C100     1.0000 0.23320  0.15050  0.28400  Biso   1.000  C 
