data_image0
_cell_length_a       7.7042
_cell_length_b       14.457
_cell_length_c       17.549
_cell_angle_alpha    90
_cell_angle_beta     90
_cell_angle_gamma    90

_symmetry_space_group_name_H-M    "P 1"
_symmetry_int_tables_number       1

loop_
  _symmetry_equiv_pos_as_xyz
  'x, y, z'

loop_
  _atom_site_label
  _atom_site_occupancy
  _atom_site_fract_x
  _atom_site_fract_y
  _atom_site_fract_z
  _atom_site_thermal_displace_type
  _atom_site_B_iso_or_equiv
  _atom_site_type_symbol
  N1       1.0000 0.48680  0.15380  0.56280  Biso   1.000  N 
  N2       1.0000 0.51320  0.84620  0.06280  Biso   1.000  N 
  N3       1.0000 0.51320  0.65380  0.93720  Biso   1.000  N 
  N4       1.0000 0.48680  0.34620  0.43720  Biso   1.000  N 
  N5       1.0000 0.51320  0.84620  0.43720  Biso   1.000  N 
  N6       1.0000 0.48680  0.15380  0.93720  Biso   1.000  N 
  N7       1.0000 0.48680  0.34620  0.06280  Biso   1.000  N 
  N8       1.0000 0.51320  0.65380  0.56280  Biso   1.000  N 
  Cd1      1.0000 0.00000  0.00000  0.50000  Biso   1.000  Cd
  Cd2      1.0000 0.00000  0.00000  0.00000  Biso   1.000  Cd
  Cd3      1.0000 0.00000  0.50000  0.00000  Biso   1.000  Cd
  Cd4      1.0000 0.00000  0.50000  0.50000  Biso   1.000  Cd
  C1       1.0000 0.89720  0.04520  0.31470  Biso   1.000  C 
  C2       1.0000 0.10280  0.95480  0.81470  Biso   1.000  C 
  C3       1.0000 0.10280  0.54520  0.18530  Biso   1.000  C 
  C4       1.0000 0.89720  0.45480  0.68530  Biso   1.000  C 
  C5       1.0000 0.10280  0.95480  0.68530  Biso   1.000  C 
  C6       1.0000 0.89720  0.04520  0.18530  Biso   1.000  C 
  C7       1.0000 0.89720  0.45480  0.81470  Biso   1.000  C 
  C8       1.0000 0.10280  0.54520  0.31470  Biso   1.000  C 
  N9       1.0000 0.83100  0.06750  0.25000  Biso   1.000  N 
  N10      1.0000 0.16900  0.93250  0.75000  Biso   1.000  N 
  N11      1.0000 0.16900  0.56750  0.25000  Biso   1.000  N 
  N12      1.0000 0.83100  0.43250  0.75000  Biso   1.000  N 
  C9       1.0000 0.63570  0.12310  0.54380  Biso   1.000  C 
  C10      1.0000 0.36430  0.87690  0.04380  Biso   1.000  C 
  C11      1.0000 0.36430  0.62310  0.95620  Biso   1.000  C 
  C12      1.0000 0.63570  0.37690  0.45620  Biso   1.000  C 
  C13      1.0000 0.36430  0.87690  0.45620  Biso   1.000  C 
  C14      1.0000 0.63570  0.12310  0.95620  Biso   1.000  C 
  C15      1.0000 0.63570  0.37690  0.04380  Biso   1.000  C 
  C16      1.0000 0.36430  0.62310  0.54380  Biso   1.000  C 
  N13      1.0000 0.20990  0.11650  0.50820  Biso   1.000  N 
  N14      1.0000 0.79010  0.88350  0.00820  Biso   1.000  N 
  N15      1.0000 0.79010  0.61650  0.99180  Biso   1.000  N 
  N16      1.0000 0.20990  0.38350  0.49180  Biso   1.000  N 
  N17      1.0000 0.79010  0.88350  0.49180  Biso   1.000  N 
  N18      1.0000 0.20990  0.11650  0.99180  Biso   1.000  N 
  N19      1.0000 0.20990  0.38350  0.00820  Biso   1.000  N 
  N20      1.0000 0.79010  0.61650  0.50820  Biso   1.000  N 
  N21      1.0000 0.77430  0.10090  0.53570  Biso   1.000  N 
  N22      1.0000 0.22570  0.89910  0.03570  Biso   1.000  N 
  N23      1.0000 0.22570  0.60090  0.96430  Biso   1.000  N 
  N24      1.0000 0.77430  0.39910  0.46430  Biso   1.000  N 
  N25      1.0000 0.22570  0.89910  0.46430  Biso   1.000  N 
  N26      1.0000 0.77430  0.10090  0.96430  Biso   1.000  N 
  N27      1.0000 0.77430  0.39910  0.03570  Biso   1.000  N 
  N28      1.0000 0.22570  0.60090  0.53570  Biso   1.000  N 
  N29      1.0000 0.94640  0.03130  0.37423  Biso   1.000  N 
  N30      1.0000 0.05360  0.96870  0.87423  Biso   1.000  N 
  N31      1.0000 0.05360  0.53130  0.12577  Biso   1.000  N 
  N32      1.0000 0.94640  0.46870  0.62577  Biso   1.000  N 
  N33      1.0000 0.05360  0.96870  0.62577  Biso   1.000  N 
  N34      1.0000 0.94640  0.03130  0.12577  Biso   1.000  N 
  N35      1.0000 0.94640  0.46870  0.87423  Biso   1.000  N 
  N36      1.0000 0.05360  0.53130  0.37423  Biso   1.000  N 
  C17      1.0000 0.34330  0.13080  0.53050  Biso   1.000  C 
  C18      1.0000 0.65670  0.86920  0.03050  Biso   1.000  C 
  C19      1.0000 0.65670  0.63080  0.96950  Biso   1.000  C 
  C20      1.0000 0.34330  0.36920  0.46950  Biso   1.000  C 
  C21      1.0000 0.65670  0.86920  0.46950  Biso   1.000  C 
  C22      1.0000 0.34330  0.13080  0.96950  Biso   1.000  C 
  C23      1.0000 0.34330  0.36920  0.03050  Biso   1.000  C 
  C24      1.0000 0.65670  0.63080  0.53050  Biso   1.000  C 
  N37      1.0000 0.95700  0.17770  0.75000  Biso   1.000  N 
  N38      1.0000 0.04300  0.82230  0.25000  Biso   1.000  N 
  N39      1.0000 0.04300  0.67770  0.75000  Biso   1.000  N 
  N40      1.0000 0.95700  0.32230  0.25000  Biso   1.000  N 
  N41      1.0000 0.35360  0.36950  0.75000  Biso   1.000  N 
  N42      1.0000 0.64640  0.63050  0.25000  Biso   1.000  N 
  N43      1.0000 0.64640  0.86950  0.75000  Biso   1.000  N 
  N44      1.0000 0.35360  0.13050  0.25000  Biso   1.000  N 
  C25      1.0000 0.79910  0.12080  0.75000  Biso   1.000  C 
  C26      1.0000 0.20090  0.87920  0.25000  Biso   1.000  C 
  C27      1.0000 0.20090  0.62080  0.75000  Biso   1.000  C 
  C28      1.0000 0.79910  0.37920  0.25000  Biso   1.000  C 
  H1       1.0000 0.79890  0.08130  0.79470  Biso   1.000  H 
  H2       1.0000 0.20110  0.91870  0.29470  Biso   1.000  H 
  H3       1.0000 0.20110  0.58130  0.70530  Biso   1.000  H 
  H4       1.0000 0.79890  0.41870  0.20530  Biso   1.000  H 
  H5       1.0000 0.20110  0.91870  0.20530  Biso   1.000  H 
  H6       1.0000 0.79890  0.08130  0.70530  Biso   1.000  H 
  H7       1.0000 0.79890  0.41870  0.29470  Biso   1.000  H 
  H8       1.0000 0.20110  0.58130  0.79470  Biso   1.000  H 
  C29      1.0000 0.23220  0.30400  0.75000  Biso   1.000  C 
  C30      1.0000 0.76780  0.69600  0.25000  Biso   1.000  C 
  C31      1.0000 0.76780  0.80400  0.75000  Biso   1.000  C 
  C32      1.0000 0.23220  0.19600  0.25000  Biso   1.000  C 
  C33      1.0000 0.16070  0.26820  0.68140  Biso   1.000  C 
  C34      1.0000 0.83930  0.73180  0.18140  Biso   1.000  C 
  C35      1.0000 0.83930  0.76820  0.81860  Biso   1.000  C 
  C36      1.0000 0.16070  0.23180  0.31860  Biso   1.000  C 
  C37      1.0000 0.83930  0.73180  0.31860  Biso   1.000  C 
  C38      1.0000 0.16070  0.26820  0.81860  Biso   1.000  C 
  C39      1.0000 0.16070  0.23180  0.18140  Biso   1.000  C 
  C40      1.0000 0.83930  0.76820  0.68140  Biso   1.000  C 
  H9       1.0000 0.20640  0.28650  0.63480  Biso   1.000  H 
  H10      1.0000 0.79360  0.71350  0.13480  Biso   1.000  H 
  H11      1.0000 0.79360  0.78650  0.86520  Biso   1.000  H 
  H12      1.0000 0.20640  0.21350  0.36520  Biso   1.000  H 
  H13      1.0000 0.79360  0.71350  0.36520  Biso   1.000  H 
  H14      1.0000 0.20640  0.28650  0.86520  Biso   1.000  H 
  H15      1.0000 0.20640  0.21350  0.13480  Biso   1.000  H 
  H16      1.0000 0.79360  0.78650  0.63480  Biso   1.000  H 
  C41      1.0000 0.02660  0.20760  0.68340  Biso   1.000  C 
  C42      1.0000 0.97340  0.79240  0.18340  Biso   1.000  C 
  C43      1.0000 0.97340  0.70760  0.81660  Biso   1.000  C 
  C44      1.0000 0.02660  0.29240  0.31660  Biso   1.000  C 
  C45      1.0000 0.97340  0.79240  0.31660  Biso   1.000  C 
  C46      1.0000 0.02660  0.20760  0.81660  Biso   1.000  C 
  C47      1.0000 0.02660  0.29240  0.18340  Biso   1.000  C 
  C48      1.0000 0.97340  0.70760  0.68340  Biso   1.000  C 
  H17      1.0000 0.98100  0.18580  0.63770  Biso   1.000  H 
  H18      1.0000 0.01900  0.81420  0.13770  Biso   1.000  H 
  H19      1.0000 0.01900  0.68580  0.86230  Biso   1.000  H 
  H20      1.0000 0.98100  0.31420  0.36230  Biso   1.000  H 
  H21      1.0000 0.01900  0.81420  0.36230  Biso   1.000  H 
  H22      1.0000 0.98100  0.18580  0.86230  Biso   1.000  H 
  H23      1.0000 0.98100  0.31420  0.13770  Biso   1.000  H 
  H24      1.0000 0.01900  0.68580  0.63770  Biso   1.000  H 
  C49      1.0000 0.42470  0.40550  0.82190  Biso   1.000  C 
  C50      1.0000 0.57530  0.59450  0.32190  Biso   1.000  C 
  C51      1.0000 0.57530  0.90550  0.67810  Biso   1.000  C 
  C52      1.0000 0.42470  0.09450  0.17810  Biso   1.000  C 
  C53      1.0000 0.57530  0.59450  0.17810  Biso   1.000  C 
  C54      1.0000 0.42470  0.40550  0.67810  Biso   1.000  C 
  C55      1.0000 0.42470  0.09450  0.32190  Biso   1.000  C 
  C56      1.0000 0.57530  0.90550  0.82190  Biso   1.000  C 
  H25      1.0000 0.33150  0.42690  0.85370  Biso   1.000  H 
  H26      1.0000 0.66850  0.57310  0.35370  Biso   1.000  H 
  H27      1.0000 0.66850  0.92690  0.64630  Biso   1.000  H 
  H28      1.0000 0.33150  0.07310  0.14630  Biso   1.000  H 
  H29      1.0000 0.66850  0.57310  0.14630  Biso   1.000  H 
  H30      1.0000 0.33150  0.42690  0.64630  Biso   1.000  H 
  H31      1.0000 0.33150  0.07310  0.35370  Biso   1.000  H 
  H32      1.0000 0.66850  0.92690  0.85370  Biso   1.000  H 
  H33      1.0000 0.50230  0.45580  0.81140  Biso   1.000  H 
  H34      1.0000 0.49770  0.54420  0.31140  Biso   1.000  H 
  H35      1.0000 0.49770  0.95580  0.68860  Biso   1.000  H 
  H36      1.0000 0.50230  0.04420  0.18860  Biso   1.000  H 
  H37      1.0000 0.49770  0.54420  0.18860  Biso   1.000  H 
  H38      1.0000 0.50230  0.45580  0.68860  Biso   1.000  H 
  H39      1.0000 0.50230  0.04420  0.31140  Biso   1.000  H 
  H40      1.0000 0.49770  0.95580  0.81140  Biso   1.000  H 
  H41      1.0000 0.48670  0.35710  0.84780  Biso   1.000  H 
  H42      1.0000 0.51330  0.64290  0.34780  Biso   1.000  H 
  H43      1.0000 0.51330  0.85710  0.65220  Biso   1.000  H 
  H44      1.0000 0.48670  0.14290  0.15220  Biso   1.000  H 
  H45      1.0000 0.51330  0.64290  0.15220  Biso   1.000  H 
  H46      1.0000 0.48670  0.35710  0.65220  Biso   1.000  H 
  H47      1.0000 0.48670  0.14290  0.34780  Biso   1.000  H 
  H48      1.0000 0.51330  0.85710  0.84780  Biso   1.000  H 
  C57      1.0000 0.63750  0.17980  0.75000  Biso   1.000  C 
  C58      1.0000 0.36250  0.82020  0.25000  Biso   1.000  C 
  C59      1.0000 0.36250  0.67980  0.75000  Biso   1.000  C 
  C60      1.0000 0.63750  0.32020  0.25000  Biso   1.000  C 
  H49      1.0000 0.53680  0.14070  0.75000  Biso   1.000  H 
  H50      1.0000 0.46320  0.85930  0.25000  Biso   1.000  H 
  H51      1.0000 0.46320  0.64070  0.75000  Biso   1.000  H 
  H52      1.0000 0.53680  0.35930  0.25000  Biso   1.000  H 
  H53      1.0000 0.63650  0.21820  0.70530  Biso   1.000  H 
  H54      1.0000 0.36350  0.78180  0.20530  Biso   1.000  H 
  H55      1.0000 0.36350  0.71820  0.79470  Biso   1.000  H 
  H56      1.0000 0.63650  0.28180  0.29470  Biso   1.000  H 
  H57      1.0000 0.36350  0.78180  0.29470  Biso   1.000  H 
  H58      1.0000 0.63650  0.21820  0.79470  Biso   1.000  H 
  H59      1.0000 0.63650  0.28180  0.20530  Biso   1.000  H 
  H60      1.0000 0.36350  0.71820  0.70530  Biso   1.000  H 
  H61      1.0000 0.03385  0.12067  0.75000  Biso   1.000  H 
  H62      1.0000 0.96615  0.87933  0.25000  Biso   1.000  H 
  H63      1.0000 0.96615  0.62067  0.75000  Biso   1.000  H 
  H64      1.0000 0.03385  0.37933  0.25000  Biso   1.000  H 
