data_image0
_cell_length_a       15.4087
_cell_length_b       14.3111
_cell_length_c       17.5944
_cell_angle_alpha    90
_cell_angle_beta     90
_cell_angle_gamma    90

_symmetry_space_group_name_H-M    "P 1"
_symmetry_int_tables_number       1

loop_
  _symmetry_equiv_pos_as_xyz
  'x, y, z'

loop_
  _atom_site_label
  _atom_site_occupancy
  _atom_site_fract_x
  _atom_site_fract_y
  _atom_site_fract_z
  _atom_site_thermal_displace_type
  _atom_site_B_iso_or_equiv
  _atom_site_type_symbol
  Ni1      1.0000 0.45506  0.54545  0.83702  Biso   1.000  Ni
  O1       1.0000 0.38310  0.42560  0.83860  Biso   1.000  O 
  H1       1.0000 0.39900  0.38780  0.79350  Biso   1.000  H 
  H2       1.0000 0.39950  0.38920  0.88430  Biso   1.000  H 
  Ni2      1.0000 0.24958  0.44373  0.83895  Biso   1.000  Ni
  O2       1.0000 0.23370  0.34820  0.75270  Biso   1.000  O 
  C1       1.0000 0.29230  0.30900  0.71410  Biso   1.000  C 
  O3       1.0000 0.37160  0.30750  0.72890  Biso   1.000  O 
  C2       1.0000 0.26420  0.25750  0.64350  Biso   1.000  C 
  C3       1.0000 0.21180  0.30120  0.58580  Biso   1.000  C 
  C4       1.0000 0.19080  0.39770  0.58910  Biso   1.000  C 
  C5       1.0000 0.14280  0.43710  0.53220  Biso   1.000  C 
  C6       1.0000 0.11400  0.38370  0.47000  Biso   1.000  C 
  C7       1.0000 0.13540  0.29180  0.46510  Biso   1.000  C 
  H3       1.0000 0.11680  0.25690  0.42220  Biso   1.000  H 
  C8       1.0000 0.18450  0.24700  0.52190  Biso   1.000  C 
  C9       1.0000 0.21170  0.15180  0.51590  Biso   1.000  C 
  C10      1.0000 0.26490  0.11470  0.57020  Biso   1.000  C 
  H4       1.0000 0.28490  0.05230  0.56470  Biso   1.000  H 
  C11      1.0000 0.29070  0.16670  0.63400  Biso   1.000  C 
  H5       1.0000 0.32700  0.13850  0.67110  Biso   1.000  H 
  C12      1.0000 0.18390  0.08890  0.45110  Biso   1.000  C 
  O4       1.0000 0.10570  0.09110  0.43270  Biso   1.000  O 
  Ni3      1.0000 0.04494  0.04545  0.33702  Biso   1.000  Ni
  O5       1.0000 0.12440  0.11230  0.26580  Biso   1.000  O 
  C13      1.0000 0.19890  0.10460  0.23880  Biso   1.000  C 
  C14      1.0000 0.22430  0.17240  0.17500  Biso   1.000  C 
  C15      1.0000 0.17230  0.25170  0.15290  Biso   1.000  C 
  C16      1.0000 0.19700  0.30260  0.08630  Biso   1.000  C 
  C17      1.0000 0.14570  0.38040  0.06340  Biso   1.000  C 
  C18      1.0000 0.07520  0.40800  0.10450  Biso   1.000  C 
  H6       1.0000 0.04240  0.46080  0.08870  Biso   1.000  H 
  C19      1.0000 0.05100  0.35880  0.16970  Biso   1.000  C 
  C20      1.0000 0.09820  0.28330  0.19450  Biso   1.000  C 
  H7       1.0000 0.08150  0.25180  0.23970  Biso   1.000  H 
  H8       1.0000 0.00110  0.37790  0.19730  Biso   1.000  H 
  H9       1.0000 0.16090  0.41370  0.01860  Biso   1.000  H 
  C21      1.0000 0.27390  0.27660  0.04590  Biso   1.000  C 
  C22      1.0000 0.30090  0.32110  0.97180  Biso   1.000  C 
  O6       1.0000 0.38060  0.33430  0.96170  Biso   1.000  O 
  O7       1.0000 0.24220  0.33940  0.92360  Biso   1.000  O 
  C23      1.0000 0.32470  0.20460  0.07270  Biso   1.000  C 
  H10      1.0000 0.37780  0.19010  0.04790  Biso   1.000  H 
  C24      1.0000 0.29880  0.15230  0.13630  Biso   1.000  C 
  H11      1.0000 0.33400  0.10170  0.15290  Biso   1.000  H 
  O8       1.0000 0.25470  0.04470  0.25690  Biso   1.000  O 
  Ni4      1.0000 0.25042  0.94373  0.33895  Biso   1.000  Ni
  O9       1.0000 0.11690  0.92560  0.33860  Biso   1.000  O 
  H12      1.0000 0.10050  0.88920  0.38430  Biso   1.000  H 
  H13      1.0000 0.10100  0.88780  0.29350  Biso   1.000  H 
  O10      1.0000 0.25780  0.83940  0.42360  Biso   1.000  O 
  C25      1.0000 0.19910  0.82110  0.47180  Biso   1.000  C 
  O11      1.0000 0.11940  0.83430  0.46170  Biso   1.000  O 
  C26      1.0000 0.22610  0.77660  0.54590  Biso   1.000  C 
  C27      1.0000 0.30300  0.80260  0.58630  Biso   1.000  C 
  C28      1.0000 0.32770  0.75170  0.65290  Biso   1.000  C 
  C29      1.0000 0.27570  0.67240  0.67500  Biso   1.000  C 
  C30      1.0000 0.20120  0.65230  0.63630  Biso   1.000  C 
  H14      1.0000 0.16600  0.60170  0.65290  Biso   1.000  H 
  C31      1.0000 0.17530  0.70460  0.57270  Biso   1.000  C 
  H15      1.0000 0.12220  0.69010  0.54790  Biso   1.000  H 
  C32      1.0000 0.30110  0.60460  0.73880  Biso   1.000  C 
  O12      1.0000 0.24530  0.54470  0.75690  Biso   1.000  O 
  O13      1.0000 0.37560  0.61230  0.76580  Biso   1.000  O 
  C33      1.0000 0.40180  0.78330  0.69450  Biso   1.000  C 
  H16      1.0000 0.41850  0.75180  0.73970  Biso   1.000  H 
  C34      1.0000 0.44900  0.85880  0.66970  Biso   1.000  C 
  H17      1.0000 0.49890  0.87790  0.69730  Biso   1.000  H 
  C35      1.0000 0.42480  0.90800  0.60450  Biso   1.000  C 
  H18      1.0000 0.45760  0.96080  0.58870  Biso   1.000  H 
  C36      1.0000 0.35430  0.88040  0.56340  Biso   1.000  C 
  H19      1.0000 0.33910  0.91370  0.51860  Biso   1.000  H 
  O14      1.0000 0.26630  0.84820  0.25270  Biso   1.000  O 
  C37      1.0000 0.20770  0.80900  0.21410  Biso   1.000  C 
  O15      1.0000 0.12840  0.80750  0.22890  Biso   1.000  O 
  C38      1.0000 0.23580  0.75750  0.14350  Biso   1.000  C 
  C39      1.0000 0.28820  0.80120  0.08580  Biso   1.000  C 
  C40      1.0000 0.30920  0.89770  0.08910  Biso   1.000  C 
  H20      1.0000 0.28990  0.93470  0.13060  Biso   1.000  H 
  C41      1.0000 0.35720  0.93710  0.03220  Biso   1.000  C 
  C42      1.0000 0.38600  0.88370  0.97000  Biso   1.000  C 
  C43      1.0000 0.36460  0.79180  0.96510  Biso   1.000  C 
  H21      1.0000 0.38320  0.75690  0.92220  Biso   1.000  H 
  C44      1.0000 0.31550  0.74700  0.02190  Biso   1.000  C 
  C45      1.0000 0.28830  0.65180  0.01590  Biso   1.000  C 
  C46      1.0000 0.23510  0.61470  0.07020  Biso   1.000  C 
  H22      1.0000 0.21510  0.55230  0.06470  Biso   1.000  H 
  C47      1.0000 0.20930  0.66670  0.13400  Biso   1.000  C 
  H23      1.0000 0.17300  0.63850  0.17110  Biso   1.000  H 
  C48      1.0000 0.31610  0.58890  0.95110  Biso   1.000  C 
  O16      1.0000 0.39430  0.59110  0.93270  Biso   1.000  O 
  O17      1.0000 0.25750  0.53830  0.92380  Biso   1.000  O 
  H24      1.0000 0.42030  0.91190  0.93150  Biso   1.000  H 
  H25      1.0000 0.37140  0.00160  0.03470  Biso   1.000  H 
  O18      1.0000 0.38540  0.95020  0.34420  Biso   1.000  O 
  S1       1.0000 0.43307  0.85885  0.33094  Biso   1.000  S 
  C49      1.0000 0.48140  0.86830  0.23900  Biso   1.000  C 
  H26      1.0000 0.43570  0.87300  0.20040  Biso   1.000  H 
  H27      1.0000 0.51800  0.92430  0.23700  Biso   1.000  H 
  H28      1.0000 0.51690  0.81290  0.22900  Biso   1.000  H 
  C50      1.0000 0.53020  0.86900  0.38600  Biso   1.000  C 
  H29      1.0000 0.56130  0.92590  0.37130  Biso   1.000  H 
  H30      1.0000 0.56720  0.81450  0.37690  Biso   1.000  H 
  H31      1.0000 0.51520  0.87220  0.44010  Biso   1.000  H 
  O19      1.0000 0.24250  0.03830  0.42380  Biso   1.000  O 
  O20      1.0000 0.97770  0.16990  0.33180  Biso   1.000  O 
  S2       1.0000 0.89418  0.19174  0.37004  Biso   1.000  S 
  C51      1.0000 0.88590  0.31470  0.35490  Biso   1.000  C 
  H32      1.0000 0.83220  0.33800  0.37800  Biso   1.000  H 
  H33      1.0000 0.88510  0.32760  0.30020  Biso   1.000  H 
  H34      1.0000 0.93580  0.34610  0.37820  Biso   1.000  H 
  C52      1.0000 0.90410  0.19240  0.46630  Biso   1.000  C 
  H35      1.0000 0.85430  0.22500  0.48870  Biso   1.000  H 
  H36      1.0000 0.95780  0.22470  0.48050  Biso   1.000  H 
  H37      1.0000 0.90590  0.12800  0.48510  Biso   1.000  H 
  O21      1.0000 0.97580  0.98900  0.24700  Biso   1.000  O 
  S3       1.0000 0.00403  0.99560  0.16471  Biso   1.000  S 
  C53      1.0000 0.96640  0.88900  0.12390  Biso   1.000  C 
  H38      1.0000 0.90720  0.87630  0.14140  Biso   1.000  H 
  H39      1.0000 0.96680  0.89430  0.06840  Biso   1.000  H 
  H40      1.0000 0.00460  0.83770  0.13950  Biso   1.000  H 
  C54      1.0000 0.92800  0.07290  0.12340  Biso   1.000  C 
  H41      1.0000 0.93120  0.06820  0.06790  Biso   1.000  H 
  H42      1.0000 0.94120  0.13700  0.13900  Biso   1.000  H 
  H43      1.0000 0.86940  0.05620  0.14030  Biso   1.000  H 
  O22      1.0000 0.94890  0.98570  0.40410  Biso   1.000  O 
  S4       1.0000 0.92194  0.88683  0.38389  Biso   1.000  S 
  C55      1.0000 0.81230  0.89510  0.35310  Biso   1.000  C 
  H44      1.0000 0.77690  0.92270  0.39360  Biso   1.000  H 
  H45      1.0000 0.79030  0.83260  0.34100  Biso   1.000  H 
  H46      1.0000 0.80910  0.93460  0.30770  Biso   1.000  H 
  C56      1.0000 0.90260  0.83400  0.47360  Biso   1.000  C 
  H47      1.0000 0.87020  0.77580  0.46640  Biso   1.000  H 
  H48      1.0000 0.95810  0.82040  0.49840  Biso   1.000  H 
  H49      1.0000 0.86880  0.87670  0.50550  Biso   1.000  H 
  H50      1.0000 0.07970  0.41190  0.43150  Biso   1.000  H 
  H51      1.0000 0.12860  0.50160  0.53470  Biso   1.000  H 
  H52      1.0000 0.21010  0.43470  0.63060  Biso   1.000  H 
  O23      1.0000 0.11460  0.45020  0.84420  Biso   1.000  O 
  S5       1.0000 0.06693  0.35885  0.83094  Biso   1.000  S 
  C57      1.0000 0.01860  0.36830  0.73900  Biso   1.000  C 
  H53      1.0000 0.06430  0.37300  0.70040  Biso   1.000  H 
  H54      1.0000 0.98200  0.42430  0.73700  Biso   1.000  H 
  H55      1.0000 0.98310  0.31290  0.72900  Biso   1.000  H 
  C58      1.0000 0.96980  0.36900  0.88600  Biso   1.000  C 
  H56      1.0000 0.93870  0.42590  0.87130  Biso   1.000  H 
  H57      1.0000 0.93280  0.31450  0.87690  Biso   1.000  H 
  H58      1.0000 0.98480  0.37220  0.94010  Biso   1.000  H 
  O24      1.0000 0.52420  0.48900  0.74700  Biso   1.000  O 
  S6       1.0000 0.49597  0.49560  0.66471  Biso   1.000  S 
  C59      1.0000 0.53360  0.38900  0.62390  Biso   1.000  C 
  H59      1.0000 0.49540  0.33770  0.63950  Biso   1.000  H 
  H60      1.0000 0.53320  0.39430  0.56840  Biso   1.000  H 
  H61      1.0000 0.59280  0.37630  0.64140  Biso   1.000  H 
  C60      1.0000 0.57200  0.57290  0.62340  Biso   1.000  C 
  H62      1.0000 0.63060  0.55620  0.64030  Biso   1.000  H 
  H63      1.0000 0.55880  0.63700  0.63900  Biso   1.000  H 
  H64      1.0000 0.56880  0.56820  0.56790  Biso   1.000  H 
  O25      1.0000 0.55110  0.48570  0.90410  Biso   1.000  O 
  S7       1.0000 0.57806  0.38683  0.88389  Biso   1.000  S 
  C61      1.0000 0.68770  0.39510  0.85310  Biso   1.000  C 
  H65      1.0000 0.69090  0.43460  0.80770  Biso   1.000  H 
  H66      1.0000 0.72310  0.42270  0.89360  Biso   1.000  H 
  H67      1.0000 0.70970  0.33260  0.84100  Biso   1.000  H 
  C62      1.0000 0.59740  0.33400  0.97360  Biso   1.000  C 
  H68      1.0000 0.54190  0.32040  0.99840  Biso   1.000  H 
  H69      1.0000 0.62980  0.27580  0.96640  Biso   1.000  H 
  H70      1.0000 0.63120  0.37670  0.00550  Biso   1.000  H 
  O26      1.0000 0.52230  0.66990  0.83180  Biso   1.000  O 
  S8       1.0000 0.60582  0.69174  0.87004  Biso   1.000  S 
  C63      1.0000 0.59590  0.69240  0.96630  Biso   1.000  C 
  H71      1.0000 0.54220  0.72470  0.98050  Biso   1.000  H 
  H72      1.0000 0.59410  0.62800  0.98510  Biso   1.000  H 
  H73      1.0000 0.64570  0.72500  0.98870  Biso   1.000  H 
  C64      1.0000 0.61410  0.81470  0.85490  Biso   1.000  C 
  H74      1.0000 0.66780  0.83800  0.87800  Biso   1.000  H 
  H75      1.0000 0.61490  0.82760  0.80020  Biso   1.000  H 
  H76      1.0000 0.56420  0.84610  0.87820  Biso   1.000  H 
