data_image0
_cell_length_a       10.887
_cell_length_b       10.896
_cell_length_c       14.07
_cell_angle_alpha    91.252
_cell_angle_beta     92.588
_cell_angle_gamma    104.43

_symmetry_space_group_name_H-M    "P 1"
_symmetry_int_tables_number       1

loop_
  _symmetry_equiv_pos_as_xyz
  'x, y, z'

loop_
  _atom_site_label
  _atom_site_occupancy
  _atom_site_fract_x
  _atom_site_fract_y
  _atom_site_fract_z
  _atom_site_thermal_displace_type
  _atom_site_B_iso_or_equiv
  _atom_site_type_symbol
  Zn1      1.0000 0.32379  0.24884  0.18137  Biso   1.000  Zn
  Zn2      1.0000 0.34049  0.25969  0.39126  Biso   1.000  Zn
  O1       1.0000 0.15070  0.23100  0.35590  Biso   1.000  O 
  C1       1.0000 0.09080  0.22740  0.27670  Biso   1.000  C 
  O2       1.0000 0.13480  0.22540  0.19710  Biso   1.000  O 
  C2       1.0000 0.95580  0.23470  0.28120  Biso   1.000  C 
  C3       1.0000 0.87790  0.22640  0.19420  Biso   1.000  C 
  C4       1.0000 0.76130  0.24160  0.20320  Biso   1.000  C 
  C5       1.0000 0.70800  0.25980  0.28700  Biso   1.000  C 
  C6       1.0000 0.57630  0.27320  0.28880  Biso   1.000  C 
  O3       1.0000 0.51400  0.27450  0.21180  Biso   1.000  O 
  O4       1.0000 0.53120  0.28630  0.36870  Biso   1.000  O 
  C7       1.0000 0.78340  0.26170  0.36470  Biso   1.000  C 
  H1       1.0000 0.75130  0.27420  0.42330  Biso   1.000  H 
  C8       1.0000 0.89930  0.24710  0.36470  Biso   1.000  C 
  H2       1.0000 0.94390  0.24520  0.42230  Biso   1.000  H 
  H3       1.0000 0.71150  0.23960  0.14750  Biso   1.000  H 
  H4       1.0000 0.90760  0.21140  0.13520  Biso   1.000  H 
  O5       1.0000 0.35570  0.44480  0.36870  Biso   1.000  O 
  C9       1.0000 0.34710  0.49290  0.28970  Biso   1.000  C 
  C10      1.0000 0.33710  0.62640  0.28730  Biso   1.000  C 
  C11      1.0000 0.32250  0.68700  0.20370  Biso   1.000  C 
  H5       1.0000 0.31890  0.64200  0.14620  Biso   1.000  H 
  C12      1.0000 0.31320  0.80980  0.20150  Biso   1.000  C 
  H6       1.0000 0.30120  0.84640  0.14380  Biso   1.000  H 
  C13      1.0000 0.32190  0.87930  0.28700  Biso   1.000  C 
  C14      1.0000 0.34000  0.82330  0.37260  Biso   1.000  C 
  C15      1.0000 0.34470  0.69940  0.37330  Biso   1.000  C 
  H7       1.0000 0.35310  0.66190  0.43120  Biso   1.000  H 
  H8       1.0000 0.34900  0.87040  0.42960  Biso   1.000  H 
  C16      1.0000 0.31930  0.01620  0.28580  Biso   1.000  C 
  O6       1.0000 0.30600  0.06280  0.20460  Biso   1.000  O 
  O7       1.0000 0.32740  0.07330  0.36450  Biso   1.000  O 
  O8       1.0000 0.34460  0.43570  0.21050  Biso   1.000  O 
  N1       1.0000 0.33820  0.25990  0.53550  Biso   1.000  N 
  C17      1.0000 0.34410  0.36360  0.58760  Biso   1.000  C 
  H9       1.0000 0.36170  0.44040  0.55710  Biso   1.000  H 
  C18      1.0000 0.32630  0.36660  0.68280  Biso   1.000  C 
  H10      1.0000 0.31280  0.43820  0.71350  Biso   1.000  H 
  C19      1.0000 0.32930  0.25500  0.73350  Biso   1.000  C 
  C20      1.0000 0.33550  0.14590  0.67890  Biso   1.000  C 
  H11      1.0000 0.33910  0.07130  0.70850  Biso   1.000  H 
  C21      1.0000 0.33600  0.15220  0.58270  Biso   1.000  C 
  H12      1.0000 0.33480  0.07890  0.54730  Biso   1.000  H 
  C22      1.0000 0.32920  0.25410  0.83760  Biso   1.000  C 
  C23      1.0000 0.27900  0.14590  0.88340  Biso   1.000  C 
  C24      1.0000 0.27060  0.14360  0.97900  Biso   1.000  C 
  N2       1.0000 0.32490  0.24970  0.03550  Biso   1.000  N 
  C25      1.0000 0.37680  0.35240  0.98950  Biso   1.000  C 
  C26      1.0000 0.37420  0.35780  0.89440  Biso   1.000  C 
  H13      1.0000 0.40450  0.43570  0.86690  Biso   1.000  H 
  H14      1.0000 0.41750  0.42530  0.02510  Biso   1.000  H 
  H15      1.0000 0.22810  0.06940  0.00680  Biso   1.000  H 
  H16      1.0000 0.24840  0.07080  0.84770  Biso   1.000  H 
