data_image0
_cell_length_a       8.887
_cell_length_b       11.402
_cell_length_c       11.422
_cell_angle_alpha    111.97
_cell_angle_beta     103.7
_cell_angle_gamma    100.22

_symmetry_space_group_name_H-M    "P 1"
_symmetry_int_tables_number       1

loop_
  _symmetry_equiv_pos_as_xyz
  'x, y, z'

loop_
  _atom_site_label
  _atom_site_occupancy
  _atom_site_fract_x
  _atom_site_fract_y
  _atom_site_fract_z
  _atom_site_thermal_displace_type
  _atom_site_B_iso_or_equiv
  _atom_site_type_symbol
  Fe1      1.0000 0.67643  0.37490  0.35343  Biso   1.000  Fe
  O1       1.0000 0.49470  0.33420  0.42950  Biso   1.000  O 
  C1       1.0000 0.45360  0.43310  0.49510  Biso   1.000  C 
  O2       1.0000 0.35340  0.43460  0.55270  Biso   1.000  O 
  Fe2      1.0000 0.32357  0.62510  0.64657  Biso   1.000  Fe
  O3       1.0000 0.11310  0.53180  0.66140  Biso   1.000  O 
  C2       1.0000 0.98890  0.49270  0.56210  Biso   1.000  C 
  C3       1.0000 0.01110  0.50730  0.43790  Biso   1.000  C 
  O4       1.0000 0.15430  0.55870  0.44860  Biso   1.000  O 
  O5       1.0000 0.88690  0.46820  0.33860  Biso   1.000  O 
  O6       1.0000 0.84570  0.44130  0.55140  Biso   1.000  O 
  Cl1      1.0000 0.29100  0.82960  0.69940  Biso   1.000  Cl
  Cl2      1.0000 0.47750  0.66250  0.85270  Biso   1.000  Cl
  O7       1.0000 0.50530  0.66580  0.57050  Biso   1.000  O 
  C4       1.0000 0.54640  0.56690  0.50490  Biso   1.000  C 
  O8       1.0000 0.64660  0.56540  0.44730  Biso   1.000  O 
  Cl3      1.0000 0.52250  0.33750  0.14730  Biso   1.000  Cl
  Cl4      1.0000 0.70900  0.17040  0.30060  Biso   1.000  Cl
