data_image0
_cell_length_a       11.6912
_cell_length_b       11.3331
_cell_length_c       10.2314
_cell_angle_alpha    90
_cell_angle_beta     97.238
_cell_angle_gamma    90

_symmetry_space_group_name_H-M    "P 1"
_symmetry_int_tables_number       1

loop_
  _symmetry_equiv_pos_as_xyz
  'x, y, z'

loop_
  _atom_site_label
  _atom_site_occupancy
  _atom_site_fract_x
  _atom_site_fract_y
  _atom_site_fract_z
  _atom_site_thermal_displace_type
  _atom_site_B_iso_or_equiv
  _atom_site_type_symbol
  Cu1      1.0000 0.00757  0.89067  0.74074  Biso   1.000  Cu
  O1       1.0000 0.09230  0.99280  0.92350  Biso   1.000  O 
  C1       1.0000 0.14530  0.94070  0.04270  Biso   1.000  C 
  H1       1.0000 0.19680  0.87900  0.01720  Biso   1.000  H 
  C2       1.0000 0.05590  0.87840  0.11680  Biso   1.000  C 
  H2       1.0000 0.01960  0.81580  0.06180  Biso   1.000  H 
  H3       1.0000 0.09540  0.84240  0.19600  Biso   1.000  H 
  N1       1.0000 0.96730  0.95680  0.15330  Biso   1.000  N 
  C3       1.0000 0.86450  0.92100  0.12790  Biso   1.000  C 
  C4       1.0000 0.76150  0.98030  0.15510  Biso   1.000  C 
  C5       1.0000 0.65440  0.94210  0.09560  Biso   1.000  C 
  H4       1.0000 0.64890  0.87450  0.04360  Biso   1.000  H 
  C6       1.0000 0.55650  0.00460  0.11380  Biso   1.000  C 
  C7       1.0000 0.56370  0.09860  0.19440  Biso   1.000  C 
  C8       1.0000 0.66810  0.13560  0.25630  Biso   1.000  C 
  H5       1.0000 0.67260  0.20200  0.31010  Biso   1.000  H 
  N2       1.0000 0.76390  0.07580  0.23900  Biso   1.000  N 
  O2       1.0000 0.86020  0.11010  0.30990  Biso   1.000  O 
  Cu2      1.0000 0.00757  0.10933  0.24074  Biso   1.000  Cu
  N3       1.0000 0.15230  0.12810  0.16420  Biso   1.000  N 
  C9       1.0000 0.21990  0.02650  0.12750  Biso   1.000  C 
  H6       1.0000 0.28150  0.05410  0.07990  Biso   1.000  H 
  H7       1.0000 0.25470  0.98670  0.20660  Biso   1.000  H 
  C10      1.0000 0.19220  0.23090  0.13970  Biso   1.000  C 
  C11      1.0000 0.14480  0.34440  0.17310  Biso   1.000  C 
  C12      1.0000 0.17910  0.44570  0.11460  Biso   1.000  C 
  H8       1.0000 0.22990  0.44060  0.05180  Biso   1.000  H 
  C13      1.0000 0.13900  0.55390  0.14810  Biso   1.000  C 
  H9       1.0000 0.16540  0.62260  0.11220  Biso   1.000  H 
  C14      1.0000 0.05930  0.55850  0.23560  Biso   1.000  C 
  C15      1.0000 0.02670  0.45660  0.29510  Biso   1.000  C 
  H10      1.0000 0.97520  0.46080  0.35720  Biso   1.000  H 
  N4       1.0000 0.06920  0.35130  0.26380  Biso   1.000  N 
  O3       1.0000 0.03870  0.25850  0.32970  Biso   1.000  O 
  H11      1.0000 0.02700  0.63050  0.25480  Biso   1.000  H 
  H12      1.0000 0.26875  0.23304  0.08914  Biso   1.000  H 
  O4       1.0000 0.09230  0.00720  0.42350  Biso   1.000  O 
  C16      1.0000 0.14530  0.05930  0.54270  Biso   1.000  C 
  H13      1.0000 0.19680  0.12100  0.51720  Biso   1.000  H 
  C17      1.0000 0.05590  0.12160  0.61680  Biso   1.000  C 
  H14      1.0000 0.09540  0.15760  0.69600  Biso   1.000  H 
  H15      1.0000 0.01960  0.18420  0.56180  Biso   1.000  H 
  N5       1.0000 0.96730  0.04320  0.65330  Biso   1.000  N 
  C18      1.0000 0.86450  0.07900  0.62790  Biso   1.000  C 
  H16      1.0000 0.85440  0.15210  0.58680  Biso   1.000  H 
  C19      1.0000 0.76150  0.01970  0.65510  Biso   1.000  C 
  C20      1.0000 0.65440  0.05790  0.59560  Biso   1.000  C 
  H17      1.0000 0.64890  0.12550  0.54360  Biso   1.000  H 
  C21      1.0000 0.55650  0.99540  0.61380  Biso   1.000  C 
  C22      1.0000 0.56370  0.90140  0.69440  Biso   1.000  C 
  C23      1.0000 0.66810  0.86440  0.75630  Biso   1.000  C 
  H18      1.0000 0.67260  0.79800  0.81010  Biso   1.000  H 
  N6       1.0000 0.76390  0.92420  0.73900  Biso   1.000  N 
  O5       1.0000 0.86020  0.88990  0.80990  Biso   1.000  O 
  H19      1.0000 0.49710  0.86110  0.70840  Biso   1.000  H 
  H20      1.0000 0.48540  0.01830  0.57010  Biso   1.000  H 
  C24      1.0000 0.21990  0.97350  0.62750  Biso   1.000  C 
  H21      1.0000 0.28150  0.94590  0.57990  Biso   1.000  H 
  N7       1.0000 0.15230  0.87190  0.66420  Biso   1.000  N 
  C25      1.0000 0.19220  0.76910  0.63970  Biso   1.000  C 
  H22      1.0000 0.26875  0.76696  0.58914  Biso   1.000  H 
  C26      1.0000 0.14480  0.65560  0.67310  Biso   1.000  C 
  C27      1.0000 0.17910  0.55430  0.61460  Biso   1.000  C 
  C28      1.0000 0.13900  0.44610  0.64810  Biso   1.000  C 
  H23      1.0000 0.16540  0.37740  0.61220  Biso   1.000  H 
  C29      1.0000 0.05930  0.44150  0.73560  Biso   1.000  C 
  H24      1.0000 0.02700  0.36950  0.75480  Biso   1.000  H 
  C30      1.0000 0.02670  0.54340  0.79510  Biso   1.000  C 
  H25      1.0000 0.97520  0.53920  0.85720  Biso   1.000  H 
  N8       1.0000 0.06920  0.64870  0.76380  Biso   1.000  N 
  O6       1.0000 0.03870  0.74150  0.82970  Biso   1.000  O 
  H26      1.0000 0.22990  0.55940  0.55180  Biso   1.000  H 
  H27      1.0000 0.25470  0.01330  0.70660  Biso   1.000  H 
  H28      1.0000 0.49710  0.13890  0.20840  Biso   1.000  H 
  H29      1.0000 0.48540  0.98170  0.07010  Biso   1.000  H 
  H30      1.0000 0.85440  0.84790  0.08680  Biso   1.000  H 
