data_image0
_cell_length_a       13.742
_cell_length_b       10.981
_cell_length_c       23.785
_cell_angle_alpha    90
_cell_angle_beta     103.153
_cell_angle_gamma    90

_symmetry_space_group_name_H-M    "P 1"
_symmetry_int_tables_number       1

loop_
  _symmetry_equiv_pos_as_xyz
  'x, y, z'

loop_
  _atom_site_label
  _atom_site_occupancy
  _atom_site_fract_x
  _atom_site_fract_y
  _atom_site_fract_z
  _atom_site_thermal_displace_type
  _atom_site_B_iso_or_equiv
  _atom_site_type_symbol
  C1       1.0000 0.40540  0.57790  0.02613  Biso   1.000  C 
  N1       1.0000 0.34100  0.66390  0.00111  Biso   1.000  N 
  C2       1.0000 0.24190  0.64130  0.99532  Biso   1.000  C 
  C3       1.0000 0.17140  0.73150  0.96453  Biso   1.000  C 
  N2       1.0000 0.21030  0.83020  0.94295  Biso   1.000  N 
  C4       1.0000 0.14650  0.91140  0.91391  Biso   1.000  C 
  H1       1.0000 0.17300  0.98000  0.89820  Biso   1.000  H 
  C5       1.0000 0.04240  0.90210  0.90510  Biso   1.000  C 
  H2       1.0000 0.00010  0.96360  0.88450  Biso   1.000  H 
  C6       1.0000 0.00260  0.80200  0.92670  Biso   1.000  C 
  H3       1.0000 0.93240  0.79310  0.92140  Biso   1.000  H 
  C7       1.0000 0.06790  0.71330  0.95680  Biso   1.000  C 
  C8       1.0000 0.03090  0.60260  0.97925  Biso   1.000  C 
  N3       1.0000 0.93190  0.58750  0.97061  Biso   1.000  N 
  C9       1.0000 0.90080  0.48480  0.99204  Biso   1.000  C 
  C10      1.0000 0.79320  0.46580  0.98369  Biso   1.000  C 
  C11      1.0000 0.72300  0.55300  0.95755  Biso   1.000  C 
  H4       1.0000 0.74470  0.62650  0.94320  Biso   1.000  H 
  C12      1.0000 0.62290  0.53230  0.95268  Biso   1.000  C 
  H5       1.0000 0.57440  0.59100  0.93550  Biso   1.000  H 
  C13      1.0000 0.59460  0.42210  0.97387  Biso   1.000  C 
  H6       1.0000 0.52530  0.40750  0.97020  Biso   1.000  H 
  N4       1.0000 0.65900  0.33610  0.99889  Biso   1.000  N 
  C14      1.0000 0.75810  0.35870  0.00468  Biso   1.000  C 
  C15      1.0000 0.82860  0.26850  0.03547  Biso   1.000  C 
  N5       1.0000 0.78970  0.16980  0.05705  Biso   1.000  N 
  C16      1.0000 0.85350  0.08860  0.08609  Biso   1.000  C 
  H7       1.0000 0.82700  0.02000  0.10180  Biso   1.000  H 
  C17      1.0000 0.95760  0.09790  0.09490  Biso   1.000  C 
  H8       1.0000 0.99990  0.03640  0.11550  Biso   1.000  H 
  C18      1.0000 0.99740  0.19800  0.07330  Biso   1.000  C 
  C19      1.0000 0.93210  0.28670  0.04320  Biso   1.000  C 
  C20      1.0000 0.96910  0.39740  0.02075  Biso   1.000  C 
  N6       1.0000 0.06810  0.41250  0.02939  Biso   1.000  N 
  C21      1.0000 0.09920  0.51520  0.00796  Biso   1.000  C 
  C22      1.0000 0.20680  0.53420  0.01631  Biso   1.000  C 
  C23      1.0000 0.27700  0.44700  0.04245  Biso   1.000  C 
  H9       1.0000 0.25530  0.37350  0.05680  Biso   1.000  H 
  C24      1.0000 0.37710  0.46770  0.04732  Biso   1.000  C 
  H10      1.0000 0.42560  0.40900  0.06450  Biso   1.000  H 
  H11      1.0000 0.06760  0.20690  0.07860  Biso   1.000  H 
  Eu1      1.0000 0.59664  0.13187  0.03207  Biso   1.000  Eu
  O1       1.0000 0.46060  0.03340  0.05781  Biso   1.000  O 
  C25      1.0000 0.38490  0.99360  0.07475  Biso   1.000  C 
  O2       1.0000 0.33900  0.89990  0.05328  Biso   1.000  O 
  Eu2      1.0000 0.40336  0.86813  0.96793  Biso   1.000  Eu
  O3       1.0000 0.42890  0.70380  0.90619  Biso   1.000  O 
  C26      1.0000 0.39180  0.75710  0.85909  Biso   1.000  C 
  C27      1.0000 0.39950  0.69530  0.80405  Biso   1.000  C 
  C28      1.0000 0.37390  0.75460  0.75170  Biso   1.000  C 
  C29      1.0000 0.38480  0.69830  0.70150  Biso   1.000  C 
  H12      1.0000 0.37000  0.74100  0.66590  Biso   1.000  H 
  C30      1.0000 0.41740  0.57900  0.70408  Biso   1.000  C 
  O4       1.0000 0.43000  0.52050  0.65362  Biso   1.000  O 
  C31      1.0000 0.35630  0.43660  0.63011  Biso   1.000  C 
  C32      1.0000 0.25660  0.45180  0.63220  Biso   1.000  C 
  C33      1.0000 0.18610  0.36790  0.60607  Biso   1.000  C 
  H13      1.0000 0.11790  0.38040  0.60650  Biso   1.000  H 
  C34      1.0000 0.21350  0.26470  0.57894  Biso   1.000  C 
  C35      1.0000 0.13680  0.17190  0.55311  Biso   1.000  C 
  O5       1.0000 0.04810  0.20820  0.53303  Biso   1.000  O 
  Eu3      1.0000 0.90336  0.13187  0.46793  Biso   1.000  Eu
  N7       1.0000 0.71030  0.16980  0.44295  Biso   1.000  N 
  C36      1.0000 0.64650  0.08860  0.41391  Biso   1.000  C 
  H14      1.0000 0.67300  0.02000  0.39820  Biso   1.000  H 
  C37      1.0000 0.54240  0.09790  0.40510  Biso   1.000  C 
  H15      1.0000 0.50010  0.03640  0.38450  Biso   1.000  H 
  C38      1.0000 0.50260  0.19800  0.42670  Biso   1.000  C 
  H16      1.0000 0.43240  0.20690  0.42140  Biso   1.000  H 
  C39      1.0000 0.56790  0.28670  0.45680  Biso   1.000  C 
  C40      1.0000 0.67140  0.26850  0.46453  Biso   1.000  C 
  C41      1.0000 0.74190  0.35870  0.49532  Biso   1.000  C 
  N8       1.0000 0.84100  0.33610  0.50111  Biso   1.000  N 
  C42      1.0000 0.90540  0.42210  0.52613  Biso   1.000  C 
  H17      1.0000 0.97470  0.40750  0.52980  Biso   1.000  H 
  C43      1.0000 0.87710  0.53230  0.54732  Biso   1.000  C 
  H18      1.0000 0.92560  0.59100  0.56450  Biso   1.000  H 
  C44      1.0000 0.77700  0.55300  0.54245  Biso   1.000  C 
  C45      1.0000 0.70680  0.46580  0.51631  Biso   1.000  C 
  C46      1.0000 0.59920  0.48480  0.50796  Biso   1.000  C 
  C47      1.0000 0.53090  0.39740  0.47925  Biso   1.000  C 
  N9       1.0000 0.43190  0.41250  0.47061  Biso   1.000  N 
  C48      1.0000 0.40080  0.51520  0.49204  Biso   1.000  C 
  C49      1.0000 0.46910  0.60260  0.52075  Biso   1.000  C 
  N10      1.0000 0.56810  0.58750  0.52939  Biso   1.000  N 
  C50      1.0000 0.43210  0.71330  0.54320  Biso   1.000  C 
  C51      1.0000 0.32860  0.73150  0.53547  Biso   1.000  C 
  N11      1.0000 0.28970  0.83020  0.55705  Biso   1.000  N 
  C52      1.0000 0.35350  0.91140  0.58609  Biso   1.000  C 
  H19      1.0000 0.32700  0.98000  0.60180  Biso   1.000  H 
  C53      1.0000 0.45760  0.90210  0.59490  Biso   1.000  C 
  H20      1.0000 0.49990  0.96360  0.61550  Biso   1.000  H 
  C54      1.0000 0.49740  0.80200  0.57330  Biso   1.000  C 
  H21      1.0000 0.56760  0.79310  0.57860  Biso   1.000  H 
  Eu4      1.0000 0.09664  0.86813  0.53207  Biso   1.000  Eu
  O6       1.0000 0.16100  0.89990  0.44672  Biso   1.000  O 
  C55      1.0000 0.11510  0.99360  0.42525  Biso   1.000  C 
  C56      1.0000 0.15370  0.05970  0.38021  Biso   1.000  C 
  C57      1.0000 0.22830  0.01350  0.35810  Biso   1.000  C 
  H22      1.0000 0.25900  0.93980  0.37400  Biso   1.000  H 
  C58      1.0000 0.26200  0.06660  0.31430  Biso   1.000  C 
  H23      1.0000 0.31170  0.02840  0.29840  Biso   1.000  H 
  C59      1.0000 0.22180  0.17680  0.29390  Biso   1.000  C 
  O7       1.0000 0.25000  0.24240  0.25000  Biso   1.000  O 
  C60      1.0000 0.27820  0.17680  0.20610  Biso   1.000  C 
  C61      1.0000 0.23800  0.06660  0.18570  Biso   1.000  C 
  H24      1.0000 0.18830  0.02840  0.20160  Biso   1.000  H 
  C62      1.0000 0.27170  0.01350  0.14190  Biso   1.000  C 
  H25      1.0000 0.24100  0.93980  0.12600  Biso   1.000  H 
  C63      1.0000 0.34630  0.05970  0.11979  Biso   1.000  C 
  C64      1.0000 0.37400  0.17570  0.13410  Biso   1.000  C 
  C65      1.0000 0.33980  0.23490  0.17890  Biso   1.000  C 
  H26      1.0000 0.36040  0.31590  0.18950  Biso   1.000  H 
  H27      1.0000 0.41650  0.21760  0.11420  Biso   1.000  H 
  C66      1.0000 0.16020  0.23490  0.32110  Biso   1.000  C 
  H28      1.0000 0.13960  0.31590  0.31050  Biso   1.000  H 
  C67      1.0000 0.12600  0.17570  0.36590  Biso   1.000  C 
  H29      1.0000 0.08350  0.21760  0.38580  Biso   1.000  H 
  O8       1.0000 0.03940  0.03340  0.44219  Biso   1.000  O 
  N12      1.0000 0.15900  0.66390  0.49889  Biso   1.000  N 
  C68      1.0000 0.09460  0.57790  0.47387  Biso   1.000  C 
  C69      1.0000 0.12290  0.46770  0.45268  Biso   1.000  C 
  H30      1.0000 0.07440  0.40900  0.43550  Biso   1.000  H 
  C70      1.0000 0.22300  0.44700  0.45755  Biso   1.000  C 
  H31      1.0000 0.24470  0.37350  0.44320  Biso   1.000  H 
  C71      1.0000 0.29320  0.53420  0.48369  Biso   1.000  C 
  C72      1.0000 0.25810  0.64130  0.50468  Biso   1.000  C 
  H32      1.0000 0.02530  0.59250  0.47020  Biso   1.000  H 
  O9       1.0000 0.07110  0.70380  0.59381  Biso   1.000  O 
  C73      1.0000 0.10820  0.75710  0.64091  Biso   1.000  C 
  C74      1.0000 0.10050  0.69530  0.69595  Biso   1.000  C 
  C75      1.0000 0.06420  0.57630  0.69446  Biso   1.000  C 
  H33      1.0000 0.04510  0.53510  0.65850  Biso   1.000  H 
  C76      1.0000 0.05550  0.51780  0.74423  Biso   1.000  C 
  H34      1.0000 0.03120  0.43660  0.74290  Biso   1.000  H 
  C77      1.0000 0.08260  0.57900  0.79592  Biso   1.000  C 
  O10      1.0000 0.07000  0.52050  0.84638  Biso   1.000  O 
  C78      1.0000 0.14370  0.43660  0.86989  Biso   1.000  C 
  C79      1.0000 0.24340  0.45180  0.86780  Biso   1.000  C 
  C80      1.0000 0.31390  0.36790  0.89393  Biso   1.000  C 
  C81      1.0000 0.28650  0.26470  0.92106  Biso   1.000  C 
  C82      1.0000 0.36320  0.17190  0.94689  Biso   1.000  C 
  O11      1.0000 0.45190  0.20820  0.96697  Biso   1.000  O 
  O12      1.0000 0.33360  0.06300  0.94650  Biso   1.000  O 
  C83      1.0000 0.18540  0.25150  0.92278  Biso   1.000  C 
  H35      1.0000 0.16550  0.18290  0.94170  Biso   1.000  H 
  C84      1.0000 0.11460  0.33610  0.89752  Biso   1.000  C 
  H36      1.0000 0.04660  0.32580  0.89900  Biso   1.000  H 
  H37      1.0000 0.38210  0.38040  0.89350  Biso   1.000  H 
  H38      1.0000 0.26280  0.52000  0.84830  Biso   1.000  H 
  C85      1.0000 0.11520  0.69830  0.79850  Biso   1.000  C 
  H39      1.0000 0.13000  0.74100  0.83410  Biso   1.000  H 
  C86      1.0000 0.12610  0.75460  0.74830  Biso   1.000  C 
  H40      1.0000 0.15140  0.83530  0.74990  Biso   1.000  H 
  O13      1.0000 0.14890  0.86010  0.64131  Biso   1.000  O 
  O14      1.0000 0.95190  0.79180  0.46697  Biso   1.000  O 
  C87      1.0000 0.86320  0.82810  0.44689  Biso   1.000  C 
  O15      1.0000 0.83360  0.93700  0.44650  Biso   1.000  O 
  C88      1.0000 0.78650  0.73530  0.42106  Biso   1.000  C 
  C89      1.0000 0.68540  0.74850  0.42278  Biso   1.000  C 
  C90      1.0000 0.61460  0.66390  0.39752  Biso   1.000  C 
  H41      1.0000 0.54660  0.67420  0.39900  Biso   1.000  H 
  C91      1.0000 0.64370  0.56340  0.36989  Biso   1.000  C 
  O16      1.0000 0.57000  0.47950  0.34638  Biso   1.000  O 
  C92      1.0000 0.58260  0.42100  0.29592  Biso   1.000  C 
  C93      1.0000 0.55550  0.48220  0.24423  Biso   1.000  C 
  H42      1.0000 0.53120  0.56340  0.24290  Biso   1.000  H 
  C94      1.0000 0.56420  0.42370  0.19446  Biso   1.000  C 
  H43      1.0000 0.54510  0.46490  0.15850  Biso   1.000  H 
  C95      1.0000 0.60050  0.30470  0.19595  Biso   1.000  C 
  C96      1.0000 0.62610  0.24540  0.24830  Biso   1.000  C 
  H44      1.0000 0.65140  0.16470  0.24990  Biso   1.000  H 
  C97      1.0000 0.61520  0.30170  0.29850  Biso   1.000  C 
  H45      1.0000 0.63000  0.25900  0.33410  Biso   1.000  H 
  C98      1.0000 0.60820  0.24290  0.14091  Biso   1.000  C 
  O17      1.0000 0.64890  0.13990  0.14131  Biso   1.000  O 
  O18      1.0000 0.57110  0.29620  0.09381  Biso   1.000  O 
  C99      1.0000 0.74340  0.54820  0.36780  Biso   1.000  C 
  H46      1.0000 0.76280  0.48000  0.34830  Biso   1.000  H 
  C100     1.0000 0.81390  0.63210  0.39393  Biso   1.000  C 
  H47      1.0000 0.88210  0.61960  0.39350  Biso   1.000  H 
  H48      1.0000 0.66550  0.81710  0.44170  Biso   1.000  H 
  O19      1.0000 0.96060  0.96660  0.55781  Biso   1.000  O 
  C101     1.0000 0.88490  0.00640  0.57475  Biso   1.000  C 
  O20      1.0000 0.83900  0.10010  0.55328  Biso   1.000  O 
  C102     1.0000 0.84630  0.94030  0.61979  Biso   1.000  C 
  C103     1.0000 0.87400  0.82430  0.63410  Biso   1.000  C 
  C104     1.0000 0.83980  0.76510  0.67890  Biso   1.000  C 
  H49      1.0000 0.86040  0.68410  0.68950  Biso   1.000  H 
  C105     1.0000 0.77820  0.82320  0.70610  Biso   1.000  C 
  C106     1.0000 0.73800  0.93340  0.68570  Biso   1.000  C 
  C107     1.0000 0.77170  0.98650  0.64190  Biso   1.000  C 
  H50      1.0000 0.74100  0.06020  0.62600  Biso   1.000  H 
  H51      1.0000 0.68830  0.97160  0.70160  Biso   1.000  H 
  O21      1.0000 0.75000  0.75760  0.75000  Biso   1.000  O 
  C108     1.0000 0.72180  0.82320  0.79390  Biso   1.000  C 
  C109     1.0000 0.76200  0.93340  0.81430  Biso   1.000  C 
  C110     1.0000 0.72830  0.98650  0.85810  Biso   1.000  C 
  C111     1.0000 0.65370  0.94030  0.88021  Biso   1.000  C 
  C112     1.0000 0.62600  0.82430  0.86590  Biso   1.000  C 
  C113     1.0000 0.66020  0.76510  0.82110  Biso   1.000  C 
  H52      1.0000 0.63960  0.68410  0.81050  Biso   1.000  H 
  H53      1.0000 0.58350  0.78240  0.88580  Biso   1.000  H 
  C114     1.0000 0.61510  0.00640  0.92525  Biso   1.000  C 
  O22      1.0000 0.66100  0.10010  0.94672  Biso   1.000  O 
  O23      1.0000 0.53940  0.96660  0.94219  Biso   1.000  O 
  H54      1.0000 0.75900  0.06020  0.87400  Biso   1.000  H 
  H55      1.0000 0.81170  0.97160  0.79840  Biso   1.000  H 
  H56      1.0000 0.91650  0.78240  0.61420  Biso   1.000  H 
  O24      1.0000 0.16640  0.06300  0.55350  Biso   1.000  O 
  H57      1.0000 0.75530  0.62650  0.55680  Biso   1.000  H 
  O25      1.0000 0.85110  0.13990  0.35869  Biso   1.000  O 
  C115     1.0000 0.89180  0.24290  0.35909  Biso   1.000  C 
  O26      1.0000 0.92890  0.29620  0.40619  Biso   1.000  O 
  C116     1.0000 0.89950  0.30470  0.30405  Biso   1.000  C 
  C117     1.0000 0.87390  0.24540  0.25170  Biso   1.000  C 
  H58      1.0000 0.84860  0.16470  0.25010  Biso   1.000  H 
  C118     1.0000 0.88480  0.30170  0.20150  Biso   1.000  C 
  H59      1.0000 0.87000  0.25900  0.16590  Biso   1.000  H 
  C119     1.0000 0.91740  0.42100  0.20408  Biso   1.000  C 
  O27      1.0000 0.93000  0.47950  0.15362  Biso   1.000  O 
  C120     1.0000 0.85630  0.56340  0.13011  Biso   1.000  C 
  C121     1.0000 0.88540  0.66390  0.10248  Biso   1.000  C 
  H60      1.0000 0.95340  0.67420  0.10100  Biso   1.000  H 
  C122     1.0000 0.81460  0.74850  0.07722  Biso   1.000  C 
  H61      1.0000 0.83450  0.81710  0.05830  Biso   1.000  H 
  C123     1.0000 0.71350  0.73530  0.07894  Biso   1.000  C 
  C124     1.0000 0.63680  0.82810  0.05311  Biso   1.000  C 
  O28      1.0000 0.66640  0.93700  0.05350  Biso   1.000  O 
  O29      1.0000 0.54810  0.79180  0.03303  Biso   1.000  O 
  C125     1.0000 0.68610  0.63210  0.10607  Biso   1.000  C 
  H62      1.0000 0.61790  0.61960  0.10650  Biso   1.000  H 
  C126     1.0000 0.75660  0.54820  0.13220  Biso   1.000  C 
  H63      1.0000 0.73720  0.48000  0.15170  Biso   1.000  H 
  C127     1.0000 0.94450  0.48220  0.25577  Biso   1.000  C 
  C128     1.0000 0.93580  0.42370  0.30554  Biso   1.000  C 
  H64      1.0000 0.95490  0.46490  0.34150  Biso   1.000  H 
  H65      1.0000 0.96880  0.56340  0.25710  Biso   1.000  H 
  C129     1.0000 0.31460  0.25150  0.57722  Biso   1.000  C 
  H66      1.0000 0.33450  0.18290  0.55830  Biso   1.000  H 
  C130     1.0000 0.38540  0.33610  0.60248  Biso   1.000  C 
  H67      1.0000 0.45340  0.32580  0.60100  Biso   1.000  H 
  H68      1.0000 0.23720  0.52000  0.65170  Biso   1.000  H 
  C131     1.0000 0.44450  0.51780  0.75577  Biso   1.000  C 
  H69      1.0000 0.46880  0.43660  0.75710  Biso   1.000  H 
  C132     1.0000 0.43580  0.57630  0.80554  Biso   1.000  C 
  H70      1.0000 0.45490  0.53510  0.84150  Biso   1.000  H 
  H71      1.0000 0.34860  0.83530  0.75010  Biso   1.000  H 
  O30      1.0000 0.35110  0.86010  0.85869  Biso   1.000  O 
  H72      1.0000 0.47470  0.59250  0.02980  Biso   1.000  H 
