data_image0
_cell_length_a       19.2401
_cell_length_b       19.2401
_cell_length_c       17.8208
_cell_angle_alpha    90
_cell_angle_beta     90
_cell_angle_gamma    120

_symmetry_space_group_name_H-M    "P 1"
_symmetry_int_tables_number       1

loop_
  _symmetry_equiv_pos_as_xyz
  'x, y, z'

loop_
  _atom_site_label
  _atom_site_occupancy
  _atom_site_fract_x
  _atom_site_fract_y
  _atom_site_fract_z
  _atom_site_thermal_displace_type
  _atom_site_B_iso_or_equiv
  _atom_site_type_symbol
  C1       1.0000 0.53193  0.36212  0.60689  Biso   1.000  C 
  O1       1.0000 0.50717  0.33915  0.54142  Biso   1.000  O 
  Zn1      1.0000 0.55272  0.29223  0.46517  Biso   1.000  Zn
  N1       1.0000 0.55240  0.35576  0.37471  Biso   1.000  N 
  N2       1.0000 0.62591  0.40161  0.33869  Biso   1.000  N 
  C2       1.0000 0.61196  0.43525  0.28147  Biso   1.000  C 
  C3       1.0000 0.67231  0.49118  0.22671  Biso   1.000  C 
  C4       1.0000 0.67853  0.46592  0.15503  Biso   1.000  C 
  H1       1.0000 0.64360  0.41180  0.14050  Biso   1.000  H 
  C5       1.0000 0.73580  0.51951  0.10423  Biso   1.000  C 
  C6       1.0000 0.78610  0.59820  0.12570  Biso   1.000  C 
  C7       1.0000 0.78130  0.62300  0.19720  Biso   1.000  C 
  C8       1.0000 0.72420  0.57000  0.24810  Biso   1.000  C 
  H2       1.0000 0.72090  0.58770  0.29710  Biso   1.000  H 
  H3       1.0000 0.81720  0.67680  0.21190  Biso   1.000  H 
  H4       1.0000 0.82400  0.63540  0.09110  Biso   1.000  H 
  C9       1.0000 0.74494  0.49313  0.02835  Biso   1.000  C 
  N3       1.0000 0.78020  0.45178  0.01280  Biso   1.000  N 
  N4       1.0000 0.77897  0.44330  0.93395  Biso   1.000  N 
  C10      1.0000 0.74197  0.47980  0.90624  Biso   1.000  C 
  N5       1.0000 0.71979  0.51329  0.96375  Biso   1.000  N 
  C11      1.0000 0.67889  0.55894  0.95849  Biso   1.000  C 
  C12      1.0000 0.60065  0.52587  0.98567  Biso   1.000  C 
  C13      1.0000 0.56396  0.57288  0.98465  Biso   1.000  C 
  H5       1.0000 0.51080  0.55090  0.00320  Biso   1.000  H 
  C14      1.0000 0.60370  0.65129  0.95707  Biso   1.000  C 
  C15      1.0000 0.68080  0.68170  0.92770  Biso   1.000  C 
  H6       1.0000 0.70780  0.73410  0.90680  Biso   1.000  H 
  C16      1.0000 0.71860  0.63560  0.92890  Biso   1.000  C 
  H7       1.0000 0.77140  0.65700  0.90950  Biso   1.000  H 
  C17      1.0000 0.56446  0.70296  0.95654  Biso   1.000  C 
  O2       1.0000 0.49571  0.67273  0.98802  Biso   1.000  O 
  Zn2      1.0000 0.44728  0.73951  0.96517  Biso   1.000  Zn
  O3       1.0000 0.49283  0.83198  0.04142  Biso   1.000  O 
  C18      1.0000 0.46807  0.83019  0.10689  Biso   1.000  C 
  C19      1.0000 0.50076  0.90766  0.15005  Biso   1.000  C 
  C20      1.0000 0.46780  0.90670  0.21960  Biso   1.000  C 
  H8       1.0000 0.42550  0.85760  0.23880  Biso   1.000  H 
  C21      1.0000 0.49570  0.97590  0.26110  Biso   1.000  C 
  H9       1.0000 0.47340  0.97430  0.30900  Biso   1.000  H 
  C22      1.0000 0.55665  0.04825  0.23239  Biso   1.000  C 
  N6       1.0000 0.58774  0.11875  0.27927  Biso   1.000  N 
  C23      1.0000 0.63673  0.13333  0.34022  Biso   1.000  C 
  N7       1.0000 0.64424  0.19664  0.37471  Biso   1.000  N 
  N8       1.0000 0.59839  0.22430  0.33869  Biso   1.000  N 
  C24      1.0000 0.56475  0.17671  0.28147  Biso   1.000  C 
  C25      1.0000 0.50882  0.18113  0.22671  Biso   1.000  C 
  C26      1.0000 0.53408  0.21261  0.15503  Biso   1.000  C 
  H10      1.0000 0.58820  0.23180  0.14050  Biso   1.000  H 
  C27      1.0000 0.48049  0.21629  0.10423  Biso   1.000  C 
  C28      1.0000 0.40180  0.18790  0.12570  Biso   1.000  C 
  H11      1.0000 0.36460  0.18860  0.09110  Biso   1.000  H 
  C29      1.0000 0.37700  0.15830  0.19720  Biso   1.000  C 
  H12      1.0000 0.32320  0.14040  0.21190  Biso   1.000  H 
  C30      1.0000 0.43000  0.15420  0.24810  Biso   1.000  C 
  H13      1.0000 0.41230  0.13320  0.29710  Biso   1.000  H 
  C31      1.0000 0.50687  0.25181  0.02835  Biso   1.000  C 
  N9       1.0000 0.54822  0.32842  0.01280  Biso   1.000  N 
  N10      1.0000 0.55670  0.33567  0.93395  Biso   1.000  N 
  C32      1.0000 0.52020  0.26217  0.90624  Biso   1.000  C 
  N11      1.0000 0.48671  0.20650  0.96375  Biso   1.000  N 
  C33      1.0000 0.44106  0.11995  0.95849  Biso   1.000  C 
  C34      1.0000 0.47413  0.07478  0.98567  Biso   1.000  C 
  H14      1.0000 0.52750  0.10040  0.00450  Biso   1.000  H 
  C35      1.0000 0.42712  0.99108  0.98465  Biso   1.000  C 
  H15      1.0000 0.44910  0.95990  0.00320  Biso   1.000  H 
  C36      1.0000 0.34871  0.95241  0.95707  Biso   1.000  C 
  C37      1.0000 0.31830  0.99910  0.92770  Biso   1.000  C 
  H16      1.0000 0.26590  0.97370  0.90680  Biso   1.000  H 
  C38      1.0000 0.36440  0.08300  0.92890  Biso   1.000  C 
  H17      1.0000 0.34300  0.11440  0.90950  Biso   1.000  H 
  C39      1.0000 0.29704  0.86150  0.95654  Biso   1.000  C 
  O4       1.0000 0.32727  0.82298  0.98802  Biso   1.000  O 
  Zn3      1.0000 0.26049  0.70777  0.96517  Biso   1.000  Zn
  O5       1.0000 0.16802  0.66085  0.04142  Biso   1.000  O 
  C40      1.0000 0.16981  0.63788  0.10689  Biso   1.000  C 
  C41      1.0000 0.09234  0.59310  0.15005  Biso   1.000  C 
  C42      1.0000 0.02040  0.58200  0.12212  Biso   1.000  C 
  H18      1.0000 0.01930  0.60370  0.07450  Biso   1.000  H 
  C43      1.0000 0.94910  0.53920  0.16335  Biso   1.000  C 
  H19      1.0000 0.89980  0.53160  0.14390  Biso   1.000  H 
  C44      1.0000 0.95175  0.50840  0.23239  Biso   1.000  C 
  N12      1.0000 0.88125  0.46899  0.27927  Biso   1.000  N 
  C45      1.0000 0.86667  0.50340  0.34022  Biso   1.000  C 
  N13      1.0000 0.80336  0.44760  0.37471  Biso   1.000  N 
  N14      1.0000 0.77570  0.37409  0.33869  Biso   1.000  N 
  C46      1.0000 0.82329  0.38804  0.28147  Biso   1.000  C 
  C47      1.0000 0.81887  0.32769  0.22671  Biso   1.000  C 
  C48      1.0000 0.78739  0.32147  0.15503  Biso   1.000  C 
  H20      1.0000 0.76820  0.35640  0.14050  Biso   1.000  H 
  C49      1.0000 0.78371  0.26420  0.10423  Biso   1.000  C 
  C50      1.0000 0.81210  0.21390  0.12570  Biso   1.000  C 
  H21      1.0000 0.81140  0.17600  0.09110  Biso   1.000  H 
  C51      1.0000 0.84170  0.21870  0.19720  Biso   1.000  C 
  H22      1.0000 0.85960  0.18280  0.21190  Biso   1.000  H 
  C52      1.0000 0.84580  0.27580  0.24810  Biso   1.000  C 
  H23      1.0000 0.86680  0.27910  0.29710  Biso   1.000  H 
  C53      1.0000 0.74819  0.25506  0.02835  Biso   1.000  C 
  N15      1.0000 0.67158  0.21980  0.01280  Biso   1.000  N 
  N16      1.0000 0.66433  0.22103  0.93395  Biso   1.000  N 
  C54      1.0000 0.73783  0.25803  0.90624  Biso   1.000  C 
  N17      1.0000 0.79350  0.28021  0.96375  Biso   1.000  N 
  C55      1.0000 0.88005  0.32111  0.95849  Biso   1.000  C 
  C56      1.0000 0.92522  0.39935  0.98567  Biso   1.000  C 
  C57      1.0000 0.00892  0.43604  0.98465  Biso   1.000  C 
  H24      1.0000 0.04010  0.48920  0.00320  Biso   1.000  H 
  C58      1.0000 0.04759  0.39630  0.95707  Biso   1.000  C 
  C59      1.0000 0.00090  0.31920  0.92770  Biso   1.000  C 
  H25      1.0000 0.02630  0.29220  0.90680  Biso   1.000  H 
  C60      1.0000 0.91700  0.28140  0.92890  Biso   1.000  C 
  H26      1.0000 0.88560  0.22860  0.90950  Biso   1.000  H 
  C61      1.0000 0.13850  0.43554  0.95654  Biso   1.000  C 
  O6       1.0000 0.17702  0.50429  0.98802  Biso   1.000  O 
  Zn4      1.0000 0.29223  0.55272  0.96517  Biso   1.000  Zn
  O7       1.0000 0.33915  0.50717  0.04142  Biso   1.000  O 
  C62      1.0000 0.36212  0.53193  0.10689  Biso   1.000  C 
  O8       1.0000 0.35058  0.58291  0.14204  Biso   1.000  O 
  Zn5      1.0000 0.33330  0.66670  0.10008  Biso   1.000  Zn
  O9       1.0000 0.33330  0.66670  0.99218  Biso   1.000  O 
  O10      1.0000 0.41709  0.76767  0.14204  Biso   1.000  O 
  O11      1.0000 0.23233  0.64942  0.14204  Biso   1.000  O 
  C63      1.0000 0.40690  0.49924  0.15005  Biso   1.000  C 
  C64      1.0000 0.43890  0.53220  0.21960  Biso   1.000  C 
  H27      1.0000 0.43210  0.57450  0.23880  Biso   1.000  H 
  C65      1.0000 0.48020  0.50430  0.26110  Biso   1.000  C 
  H28      1.0000 0.50090  0.52660  0.30900  Biso   1.000  H 
  C66      1.0000 0.49160  0.44335  0.23239  Biso   1.000  C 
  C67      1.0000 0.46080  0.40990  0.16335  Biso   1.000  C 
  C68      1.0000 0.41800  0.43840  0.12212  Biso   1.000  C 
  H29      1.0000 0.39630  0.41560  0.07450  Biso   1.000  H 
  H30      1.0000 0.46840  0.36820  0.14390  Biso   1.000  H 
  N18      1.0000 0.53101  0.41226  0.27927  Biso   1.000  N 
  C69      1.0000 0.49660  0.36327  0.34022  Biso   1.000  C 
  C70      1.0000 0.41090  0.32720  0.36260  Biso   1.000  C 
  H31      1.0000 0.39970  0.36990  0.37660  Biso   1.000  H 
  H32      1.0000 0.37650  0.29650  0.32040  Biso   1.000  H 
  H33      1.0000 0.40010  0.29130  0.40550  Biso   1.000  H 
  N19      1.0000 0.35576  0.55240  0.87471  Biso   1.000  N 
  N20      1.0000 0.40161  0.62591  0.83869  Biso   1.000  N 
  C71      1.0000 0.43525  0.61196  0.78147  Biso   1.000  C 
  C72      1.0000 0.49118  0.67231  0.72671  Biso   1.000  C 
  C73      1.0000 0.46592  0.67853  0.65503  Biso   1.000  C 
  H34      1.0000 0.41180  0.64360  0.64050  Biso   1.000  H 
  C74      1.0000 0.51951  0.73580  0.60423  Biso   1.000  C 
  C75      1.0000 0.59820  0.78610  0.62570  Biso   1.000  C 
  H35      1.0000 0.63540  0.82400  0.59110  Biso   1.000  H 
  C76      1.0000 0.62300  0.78130  0.69720  Biso   1.000  C 
  C77      1.0000 0.57000  0.72420  0.74810  Biso   1.000  C 
  H36      1.0000 0.58770  0.72090  0.79710  Biso   1.000  H 
  H37      1.0000 0.67680  0.81720  0.71190  Biso   1.000  H 
  C78      1.0000 0.49313  0.74494  0.52835  Biso   1.000  C 
  N21      1.0000 0.45178  0.78020  0.51280  Biso   1.000  N 
  N22      1.0000 0.44330  0.77897  0.43395  Biso   1.000  N 
  C79      1.0000 0.47980  0.74197  0.40624  Biso   1.000  C 
  N23      1.0000 0.51329  0.71979  0.46375  Biso   1.000  N 
  C80      1.0000 0.55894  0.67889  0.45849  Biso   1.000  C 
  C81      1.0000 0.52587  0.60065  0.48567  Biso   1.000  C 
  H38      1.0000 0.47250  0.57290  0.50450  Biso   1.000  H 
  C82      1.0000 0.57288  0.56396  0.48465  Biso   1.000  C 
  H39      1.0000 0.55090  0.51080  0.50320  Biso   1.000  H 
  C83      1.0000 0.65129  0.60370  0.45707  Biso   1.000  C 
  C84      1.0000 0.68170  0.68080  0.42770  Biso   1.000  C 
  C85      1.0000 0.63560  0.71860  0.42890  Biso   1.000  C 
  H40      1.0000 0.65700  0.77140  0.40950  Biso   1.000  H 
  H41      1.0000 0.73410  0.70780  0.40680  Biso   1.000  H 
  C86      1.0000 0.70296  0.56446  0.45654  Biso   1.000  C 
  O12      1.0000 0.76942  0.59887  0.42559  Biso   1.000  O 
  O13      1.0000 0.67273  0.49571  0.48802  Biso   1.000  O 
  Zn6      1.0000 0.73951  0.44728  0.46517  Biso   1.000  Zn
  O14      1.0000 0.66670  0.33330  0.49218  Biso   1.000  O 
  Zn7      1.0000 0.66670  0.33330  0.60008  Biso   1.000  Zn
  O15      1.0000 0.58291  0.35058  0.64204  Biso   1.000  O 
  O16      1.0000 0.64942  0.23233  0.64204  Biso   1.000  O 
  C87      1.0000 0.63788  0.16981  0.60689  Biso   1.000  C 
  O17      1.0000 0.66085  0.16802  0.54142  Biso   1.000  O 
  Zn8      1.0000 0.70777  0.26049  0.46517  Biso   1.000  Zn
  O18      1.0000 0.82298  0.32727  0.48802  Biso   1.000  O 
  C88      1.0000 0.86150  0.29704  0.45654  Biso   1.000  C 
  O19      1.0000 0.82945  0.23058  0.42559  Biso   1.000  O 
  C89      1.0000 0.95241  0.34871  0.45707  Biso   1.000  C 
  C90      1.0000 0.99910  0.31830  0.42770  Biso   1.000  C 
  H42      1.0000 0.97370  0.26590  0.40680  Biso   1.000  H 
  C91      1.0000 0.08300  0.36440  0.42890  Biso   1.000  C 
  C92      1.0000 0.11995  0.44106  0.45849  Biso   1.000  C 
  C93      1.0000 0.07478  0.47413  0.48567  Biso   1.000  C 
  H43      1.0000 0.10040  0.52750  0.50450  Biso   1.000  H 
  C94      1.0000 0.99108  0.42712  0.48465  Biso   1.000  C 
  H44      1.0000 0.95990  0.44910  0.50320  Biso   1.000  H 
  N24      1.0000 0.20650  0.48671  0.46375  Biso   1.000  N 
  C95      1.0000 0.26217  0.52020  0.40624  Biso   1.000  C 
  N25      1.0000 0.33567  0.55670  0.43395  Biso   1.000  N 
  N26      1.0000 0.32842  0.54822  0.51280  Biso   1.000  N 
  C96      1.0000 0.25181  0.50687  0.52835  Biso   1.000  C 
  C97      1.0000 0.21629  0.48049  0.60423  Biso   1.000  C 
  C98      1.0000 0.21261  0.53408  0.65503  Biso   1.000  C 
  H45      1.0000 0.23180  0.58820  0.64050  Biso   1.000  H 
  C99      1.0000 0.18113  0.50882  0.72671  Biso   1.000  C 
  C100     1.0000 0.17671  0.56475  0.78147  Biso   1.000  C 
  N27      1.0000 0.11875  0.58774  0.77927  Biso   1.000  N 
  C101     1.0000 0.04825  0.55665  0.73239  Biso   1.000  C 
  C102     1.0000 0.05090  0.59010  0.66335  Biso   1.000  C 
  H46      1.0000 0.10020  0.63180  0.64390  Biso   1.000  H 
  C103     1.0000 0.97960  0.56160  0.62212  Biso   1.000  C 
  H47      1.0000 0.98070  0.58440  0.57450  Biso   1.000  H 
  C104     1.0000 0.90766  0.50076  0.65005  Biso   1.000  C 
  C105     1.0000 0.90670  0.46780  0.71960  Biso   1.000  C 
  H48      1.0000 0.85760  0.42550  0.73880  Biso   1.000  H 
  C106     1.0000 0.97590  0.49570  0.76110  Biso   1.000  C 
  H49      1.0000 0.97430  0.47340  0.80900  Biso   1.000  H 
  C107     1.0000 0.83019  0.46807  0.60689  Biso   1.000  C 
  O20      1.0000 0.76767  0.41709  0.64204  Biso   1.000  O 
  O21      1.0000 0.83198  0.49283  0.54142  Biso   1.000  O 
  C108     1.0000 0.13333  0.63673  0.84022  Biso   1.000  C 
  N28      1.0000 0.19664  0.64424  0.87471  Biso   1.000  N 
  N29      1.0000 0.22430  0.59839  0.83869  Biso   1.000  N 
  C109     1.0000 0.08370  0.67280  0.86260  Biso   1.000  C 
  H50      1.0000 0.02980  0.63010  0.87660  Biso   1.000  H 
  H51      1.0000 0.08000  0.70350  0.82040  Biso   1.000  H 
  H52      1.0000 0.10880  0.70870  0.90550  Biso   1.000  H 
  C110     1.0000 0.15420  0.43000  0.74810  Biso   1.000  C 
  H53      1.0000 0.13320  0.41230  0.79710  Biso   1.000  H 
  C111     1.0000 0.15830  0.37700  0.69720  Biso   1.000  C 
  H54      1.0000 0.14040  0.32320  0.71190  Biso   1.000  H 
  C112     1.0000 0.18790  0.40180  0.62570  Biso   1.000  C 
  H55      1.0000 0.18860  0.36460  0.59110  Biso   1.000  H 
  C113     1.0000 0.24090  0.51710  0.32550  Biso   1.000  C 
  H56      1.0000 0.28920  0.55300  0.29680  Biso   1.000  H 
  H57      1.0000 0.21860  0.46210  0.30690  Biso   1.000  H 
  H58      1.0000 0.20100  0.53420  0.31980  Biso   1.000  H 
  H59      1.0000 0.11440  0.34300  0.40950  Biso   1.000  H 
  C114     1.0000 0.59310  0.09234  0.65005  Biso   1.000  C 
  C115     1.0000 0.58200  0.02040  0.62212  Biso   1.000  C 
  H60      1.0000 0.60370  0.01930  0.57450  Biso   1.000  H 
  C116     1.0000 0.53920  0.94910  0.66335  Biso   1.000  C 
  H61      1.0000 0.53160  0.89980  0.64390  Biso   1.000  H 
  C117     1.0000 0.50840  0.95175  0.73239  Biso   1.000  C 
  N30      1.0000 0.46899  0.88125  0.77927  Biso   1.000  N 
  C118     1.0000 0.50340  0.86667  0.84022  Biso   1.000  C 
  N31      1.0000 0.44760  0.80336  0.87471  Biso   1.000  N 
  N32      1.0000 0.37409  0.77570  0.83869  Biso   1.000  N 
  C119     1.0000 0.38804  0.82329  0.78147  Biso   1.000  C 
  C120     1.0000 0.32769  0.81887  0.72671  Biso   1.000  C 
  C121     1.0000 0.32147  0.78739  0.65503  Biso   1.000  C 
  H62      1.0000 0.35640  0.76820  0.64050  Biso   1.000  H 
  C122     1.0000 0.26420  0.78371  0.60423  Biso   1.000  C 
  C123     1.0000 0.21390  0.81210  0.62570  Biso   1.000  C 
  H63      1.0000 0.17600  0.81140  0.59110  Biso   1.000  H 
  C124     1.0000 0.21870  0.84170  0.69720  Biso   1.000  C 
  H64      1.0000 0.18280  0.85960  0.71190  Biso   1.000  H 
  C125     1.0000 0.27580  0.84580  0.74810  Biso   1.000  C 
  H65      1.0000 0.27910  0.86680  0.79710  Biso   1.000  H 
  C126     1.0000 0.25506  0.74819  0.52835  Biso   1.000  C 
  N33      1.0000 0.21980  0.67158  0.51280  Biso   1.000  N 
  N34      1.0000 0.22103  0.66433  0.43395  Biso   1.000  N 
  C127     1.0000 0.25803  0.73783  0.40624  Biso   1.000  C 
  N35      1.0000 0.28021  0.79350  0.46375  Biso   1.000  N 
  C128     1.0000 0.32111  0.88005  0.45849  Biso   1.000  C 
  C129     1.0000 0.39935  0.92522  0.48567  Biso   1.000  C 
  H66      1.0000 0.42710  0.89960  0.50450  Biso   1.000  H 
  C130     1.0000 0.43604  0.00892  0.48465  Biso   1.000  C 
  H67      1.0000 0.48920  0.04010  0.50320  Biso   1.000  H 
  C131     1.0000 0.39630  0.04759  0.45707  Biso   1.000  C 
  C132     1.0000 0.31920  0.00090  0.42770  Biso   1.000  C 
  H68      1.0000 0.29220  0.02630  0.40680  Biso   1.000  H 
  C133     1.0000 0.28140  0.91700  0.42890  Biso   1.000  C 
  H69      1.0000 0.22860  0.88560  0.40950  Biso   1.000  H 
  C134     1.0000 0.43554  0.13850  0.45654  Biso   1.000  C 
  O22      1.0000 0.40113  0.17055  0.42559  Biso   1.000  O 
  O23      1.0000 0.50429  0.17702  0.48802  Biso   1.000  O 
  C135     1.0000 0.27620  0.75910  0.32550  Biso   1.000  C 
  H70      1.0000 0.24350  0.78140  0.30690  Biso   1.000  H 
  H71      1.0000 0.26380  0.71080  0.29680  Biso   1.000  H 
  H72      1.0000 0.33320  0.79900  0.31980  Biso   1.000  H 
  C136     1.0000 0.58910  0.91630  0.86260  Biso   1.000  C 
  H73      1.0000 0.62350  0.92000  0.82040  Biso   1.000  H 
  H74      1.0000 0.60030  0.97020  0.87660  Biso   1.000  H 
  H75      1.0000 0.59990  0.89120  0.90550  Biso   1.000  H 
  C137     1.0000 0.51980  0.02410  0.76110  Biso   1.000  C 
  H76      1.0000 0.49910  0.02570  0.80900  Biso   1.000  H 
  C138     1.0000 0.56110  0.09330  0.71960  Biso   1.000  C 
  H77      1.0000 0.56790  0.14240  0.73880  Biso   1.000  H 
  C139     1.0000 0.48290  0.72380  0.32550  Biso   1.000  C 
  H78      1.0000 0.44700  0.73620  0.29680  Biso   1.000  H 
  H79      1.0000 0.53790  0.75650  0.30690  Biso   1.000  H 
  H80      1.0000 0.46580  0.66680  0.31980  Biso   1.000  H 
  N36      1.0000 0.41226  0.53101  0.77927  Biso   1.000  N 
  C140     1.0000 0.44335  0.49160  0.73239  Biso   1.000  C 
  C141     1.0000 0.40990  0.46080  0.66335  Biso   1.000  C 
  C142     1.0000 0.43840  0.41800  0.62212  Biso   1.000  C 
  H81      1.0000 0.41560  0.39630  0.57450  Biso   1.000  H 
  C143     1.0000 0.49924  0.40690  0.65005  Biso   1.000  C 
  C144     1.0000 0.53220  0.43890  0.71960  Biso   1.000  C 
  H82      1.0000 0.57450  0.43210  0.73880  Biso   1.000  H 
  C145     1.0000 0.50430  0.48020  0.76110  Biso   1.000  C 
  H83      1.0000 0.52660  0.50090  0.80900  Biso   1.000  H 
  H84      1.0000 0.36820  0.46840  0.64390  Biso   1.000  H 
  C146     1.0000 0.36327  0.49660  0.84022  Biso   1.000  C 
  C147     1.0000 0.32720  0.41090  0.86260  Biso   1.000  C 
  H85      1.0000 0.29650  0.37650  0.82040  Biso   1.000  H 
  H86      1.0000 0.29130  0.40010  0.90550  Biso   1.000  H 
  H87      1.0000 0.36990  0.39970  0.87660  Biso   1.000  H 
  O24      1.0000 0.17055  0.40113  0.92559  Biso   1.000  O 
  H88      1.0000 0.89960  0.42710  0.00450  Biso   1.000  H 
  C148     1.0000 0.75910  0.27620  0.82550  Biso   1.000  C 
  H89      1.0000 0.71080  0.26380  0.79680  Biso   1.000  H 
  H90      1.0000 0.78140  0.24350  0.80690  Biso   1.000  H 
  H91      1.0000 0.79900  0.33320  0.81980  Biso   1.000  H 
  C149     1.0000 0.91630  0.58910  0.36260  Biso   1.000  C 
  H92      1.0000 0.92000  0.62350  0.32040  Biso   1.000  H 
  H93      1.0000 0.89120  0.59990  0.40550  Biso   1.000  H 
  H94      1.0000 0.97020  0.60030  0.37660  Biso   1.000  H 
  C150     1.0000 0.02410  0.51980  0.26110  Biso   1.000  C 
  H95      1.0000 0.02570  0.49910  0.30900  Biso   1.000  H 
  C151     1.0000 0.09330  0.56110  0.21960  Biso   1.000  C 
  H96      1.0000 0.14240  0.56790  0.23880  Biso   1.000  H 
  O25      1.0000 0.23058  0.82945  0.92559  Biso   1.000  O 
  C152     1.0000 0.51710  0.24090  0.82550  Biso   1.000  C 
  H97      1.0000 0.55300  0.28920  0.79680  Biso   1.000  H 
  H98      1.0000 0.46210  0.21860  0.80690  Biso   1.000  H 
  H99      1.0000 0.53420  0.20100  0.81980  Biso   1.000  H 
  C153     1.0000 0.67280  0.08370  0.36260  Biso   1.000  C 
  H100     1.0000 0.70350  0.08000  0.32040  Biso   1.000  H 
  H101     1.0000 0.70870  0.10880  0.40550  Biso   1.000  H 
  H102     1.0000 0.63010  0.02980  0.37660  Biso   1.000  H 
  C154     1.0000 0.59010  0.05090  0.16335  Biso   1.000  C 
  H103     1.0000 0.63180  0.10020  0.14390  Biso   1.000  H 
  C155     1.0000 0.56160  0.97960  0.12212  Biso   1.000  C 
  H104     1.0000 0.58440  0.98070  0.07450  Biso   1.000  H 
  O26      1.0000 0.59887  0.76942  0.92559  Biso   1.000  O 
  H105     1.0000 0.57290  0.47250  0.00450  Biso   1.000  H 
  C156     1.0000 0.72380  0.48290  0.82550  Biso   1.000  C 
  H106     1.0000 0.66680  0.46580  0.81980  Biso   1.000  H 
  H107     1.0000 0.75650  0.53790  0.80690  Biso   1.000  H 
  H108     1.0000 0.73620  0.44700  0.79680  Biso   1.000  H 
