data_image0
_cell_length_a       11.8586
_cell_length_b       14.0453
_cell_length_c       20.4624
_cell_angle_alpha    107.528
_cell_angle_beta     103.811
_cell_angle_gamma    91.519

_symmetry_space_group_name_H-M    "P 1"
_symmetry_int_tables_number       1

loop_
  _symmetry_equiv_pos_as_xyz
  'x, y, z'

loop_
  _atom_site_label
  _atom_site_occupancy
  _atom_site_fract_x
  _atom_site_fract_y
  _atom_site_fract_z
  _atom_site_thermal_displace_type
  _atom_site_B_iso_or_equiv
  _atom_site_type_symbol
  Ag1      1.0000 0.00000  0.00000  0.00000  Biso   1.000  Ag
  N1       1.0000 0.02570  0.06260  0.11200  Biso   1.000  N 
  C1       1.0000 0.10090  0.14340  0.15170  Biso   1.000  C 
  H1       1.0000 0.15340  0.16820  0.13060  Biso   1.000  H 
  C2       1.0000 0.10580  0.19210  0.22170  Biso   1.000  C 
  H2       1.0000 0.16090  0.24930  0.24750  Biso   1.000  H 
  C3       1.0000 0.03120  0.15890  0.25510  Biso   1.000  C 
  Si1      1.0000 0.01460  0.23340  0.34443  Biso   1.000  Si
  C4       1.0000 0.15220  0.31210  0.40140  Biso   1.000  C 
  H3       1.0000 0.21390  0.26720  0.40820  Biso   1.000  H 
  H4       1.0000 0.17660  0.35530  0.37570  Biso   1.000  H 
  C5       1.0000 0.14580  0.37570  0.47060  Biso   1.000  C 
  H5       1.0000 0.12400  0.33390  0.49730  Biso   1.000  H 
  H6       1.0000 0.22200  0.41390  0.49660  Biso   1.000  H 
  H7       1.0000 0.08690  0.42230  0.46480  Biso   1.000  H 
  C6       1.0000 0.96330  0.14550  0.38770  Biso   1.000  C 
  H8       1.0000 0.94820  0.18590  0.43300  Biso   1.000  H 
  H9       1.0000 0.88830  0.10760  0.35660  Biso   1.000  H 
  C7       1.0000 0.04470  0.07450  0.40210  Biso   1.000  C 
  H10      1.0000 0.05770  0.03190  0.35740  Biso   1.000  H 
  H11      1.0000 0.01240  0.03250  0.42520  Biso   1.000  H 
  H12      1.0000 0.11910  0.11110  0.43340  Biso   1.000  H 
  C8       1.0000 0.90020  0.31630  0.32040  Biso   1.000  C 
  C9       1.0000 0.78170  0.29000  0.30640  Biso   1.000  C 
  H13      1.0000 0.75530  0.23070  0.31410  Biso   1.000  H 
  C10      1.0000 0.70070  0.34860  0.28140  Biso   1.000  C 
  H14      1.0000 0.62000  0.32920  0.27350  Biso   1.000  H 
  N2       1.0000 0.73230  0.43140  0.26800  Biso   1.000  N 
  C11      1.0000 0.84670  0.45850  0.28270  Biso   1.000  C 
  H15      1.0000 0.87080  0.51860  0.27530  Biso   1.000  H 
  C12      1.0000 0.93130  0.40420  0.30780  Biso   1.000  C 
  H16      1.0000 0.01140  0.42670  0.31660  Biso   1.000  H 
  Ag2      1.0000 0.60773  0.50964  0.21639  Biso   1.000  Ag
  N3       1.0000 0.49170  0.57620  0.14960  Biso   1.000  N 
  C13      1.0000 0.37930  0.54010  0.12200  Biso   1.000  C 
  H17      1.0000 0.35240  0.48290  0.13190  Biso   1.000  H 
  C14      1.0000 0.30100  0.58150  0.08030  Biso   1.000  C 
  H18      1.0000 0.22170  0.55340  0.06270  Biso   1.000  H 
  C15      1.0000 0.33670  0.66430  0.06370  Biso   1.000  C 
  Si2      1.0000 0.23170  0.72810  0.01038  Biso   1.000  Si
  C16      1.0000 0.18800  0.84660  0.06000  Biso   1.000  C 
  H19      1.0000 0.25510  0.89830  0.08560  Biso   1.000  H 
  C17      1.0000 0.14000  0.80900  0.10700  Biso   1.000  C 
  H20      1.0000 0.07980  0.75280  0.07940  Biso   1.000  H 
  H21      1.0000 0.20270  0.78530  0.13760  Biso   1.000  H 
  H22      1.0000 0.10590  0.86250  0.13680  Biso   1.000  H 
  H23      1.0000 0.12800  0.87320  0.02910  Biso   1.000  H 
  C18      1.0000 0.30400  0.80820  0.97350  Biso   1.000  C 
  H24      1.0000 0.24980  0.85310  0.95650  Biso   1.000  H 
  C19      1.0000 0.34000  0.74000  0.91500  Biso   1.000  C 
  H25      1.0000 0.27310  0.71690  0.87340  Biso   1.000  H 
  H26      1.0000 0.36970  0.68240  0.92840  Biso   1.000  H 
  H27      1.0000 0.40190  0.77510  0.90380  Biso   1.000  H 
  H28      1.0000 0.37280  0.85000  0.00970  Biso   1.000  H 
  C20      1.0000 0.11840  0.63010  0.94170  Biso   1.000  C 
  C21      1.0000 0.14340  0.53520  0.90680  Biso   1.000  C 
  H29      1.0000 0.21950  0.51560  0.91920  Biso   1.000  H 
  C22      1.0000 0.05560  0.46910  0.85330  Biso   1.000  C 
  H30      1.0000 0.07400  0.40410  0.83040  Biso   1.000  H 
  N4       1.0000 0.94830  0.49140  0.83250  Biso   1.000  N 
  C23      1.0000 0.92380  0.58140  0.86500  Biso   1.000  C 
  H31      1.0000 0.84690  0.59850  0.85070  Biso   1.000  H 
  C24      1.0000 0.00490  0.65220  0.91890  Biso   1.000  C 
  H32      1.0000 0.98290  0.71640  0.94060  Biso   1.000  H 
  Ag3      1.0000 0.81873  0.38337  0.74662  Biso   1.000  Ag
  N5       1.0000 0.70810  0.24130  0.70410  Biso   1.000  N 
  C25      1.0000 0.75350  0.15570  0.68890  Biso   1.000  C 
  C26      1.0000 0.68940  0.06170  0.67050  Biso   1.000  C 
  H33      1.0000 0.72660  0.00200  0.65940  Biso   1.000  H 
  C27      1.0000 0.57280  0.05630  0.66870  Biso   1.000  C 
  C28      1.0000 0.52750  0.14790  0.68410  Biso   1.000  C 
  H34      1.0000 0.44700  0.14940  0.68290  Biso   1.000  H 
  C29      1.0000 0.59610  0.23680  0.70110  Biso   1.000  C 
  H35      1.0000 0.56090  0.29770  0.71110  Biso   1.000  H 
  Si3      1.0000 0.47910  0.93648  0.65192  Biso   1.000  Si
  C30      1.0000 0.33090  0.94150  0.59550  Biso   1.000  C 
  H36      1.0000 0.28520  0.87550  0.58280  Biso   1.000  H 
  H37      1.0000 0.29140  0.99200  0.62490  Biso   1.000  H 
  C31      1.0000 0.32510  0.96510  0.53050  Biso   1.000  C 
  H38      1.0000 0.24330  0.96510  0.50600  Biso   1.000  H 
  H39      1.0000 0.36120  0.91450  0.49960  Biso   1.000  H 
  H40      1.0000 0.36700  0.03150  0.54190  Biso   1.000  H 
  C32      1.0000 0.47120  0.94110  0.74420  Biso   1.000  C 
  C33      1.0000 0.53420  0.88320  0.78110  Biso   1.000  C 
  H41      1.0000 0.57730  0.83350  0.75820  Biso   1.000  H 
  C34      1.0000 0.53450  0.89740  0.85070  Biso   1.000  C 
  H42      1.0000 0.57740  0.85560  0.87420  Biso   1.000  H 
  N6       1.0000 0.47840  0.96630  0.88710  Biso   1.000  N 
  C35      1.0000 0.41420  0.01960  0.85140  Biso   1.000  C 
  H43      1.0000 0.37050  0.06750  0.87530  Biso   1.000  H 
  C36      1.0000 0.40800  0.00920  0.78180  Biso   1.000  C 
  H44      1.0000 0.36000  0.04890  0.75890  Biso   1.000  H 
  Ag4      1.0000 0.50000  0.00000  0.00000  Biso   1.000  Ag
  N7       1.0000 0.52160  0.03370  0.11290  Biso   1.000  N 
  C37      1.0000 0.46550  0.10260  0.14930  Biso   1.000  C 
  C38      1.0000 0.46580  0.11680  0.21890  Biso   1.000  C 
  H45      1.0000 0.42270  0.16650  0.24180  Biso   1.000  H 
  C39      1.0000 0.52880  0.05890  0.25580  Biso   1.000  C 
  Si4      1.0000 0.52090  0.06352  0.34808  Biso   1.000  Si
  C40      1.0000 0.44910  0.17460  0.38830  Biso   1.000  C 
  H46      1.0000 0.36990  0.16930  0.35690  Biso   1.000  H 
  C41      1.0000 0.43780  0.19030  0.45980  Biso   1.000  C 
  H47      1.0000 0.51550  0.19800  0.49220  Biso   1.000  H 
  H48      1.0000 0.39100  0.13230  0.46070  Biso   1.000  H 
  H49      1.0000 0.39930  0.25100  0.47470  Biso   1.000  H 
  H50      1.0000 0.49350  0.23540  0.38830  Biso   1.000  H 
  C42      1.0000 0.66910  0.05850  0.40450  Biso   1.000  C 
  C43      1.0000 0.67490  0.03490  0.46950  Biso   1.000  C 
  H51      1.0000 0.75670  0.03490  0.49400  Biso   1.000  H 
  H52      1.0000 0.63880  0.08550  0.50040  Biso   1.000  H 
  H53      1.0000 0.63300  0.96850  0.45810  Biso   1.000  H 
  H54      1.0000 0.70860  0.00800  0.37510  Biso   1.000  H 
  H55      1.0000 0.71480  0.12450  0.41720  Biso   1.000  H 
  C44      1.0000 0.42720  0.94370  0.33130  Biso   1.000  C 
  C45      1.0000 0.47250  0.85210  0.31590  Biso   1.000  C 
  C46      1.0000 0.40390  0.76320  0.29890  Biso   1.000  C 
  H56      1.0000 0.43910  0.70230  0.28890  Biso   1.000  H 
  N8       1.0000 0.29190  0.75870  0.29590  Biso   1.000  N 
  C47      1.0000 0.24650  0.84430  0.31110  Biso   1.000  C 
  H57      1.0000 0.16580  0.84260  0.30960  Biso   1.000  H 
  C48      1.0000 0.31060  0.93830  0.32950  Biso   1.000  C 
  H58      1.0000 0.27340  0.99800  0.34060  Biso   1.000  H 
  Ag5      1.0000 0.18127  0.61663  0.25338  Biso   1.000  Ag
  N9       1.0000 0.05170  0.50860  0.16750  Biso   1.000  N 
  C49      1.0000 0.07620  0.41860  0.13500  Biso   1.000  C 
  H59      1.0000 0.15310  0.40150  0.14930  Biso   1.000  H 
  C50      1.0000 0.99510  0.34780  0.08110  Biso   1.000  C 
  H60      1.0000 0.01710  0.28360  0.05940  Biso   1.000  H 
  C51      1.0000 0.88160  0.36990  0.05830  Biso   1.000  C 
  C52      1.0000 0.85660  0.46480  0.09320  Biso   1.000  C 
  H61      1.0000 0.78050  0.48440  0.08080  Biso   1.000  H 
  C53      1.0000 0.94440  0.53090  0.14670  Biso   1.000  C 
  H62      1.0000 0.92600  0.59590  0.16960  Biso   1.000  H 
  Si5      1.0000 0.76830  0.27190  0.98962  Biso   1.000  Si
  C54      1.0000 0.81200  0.15340  0.94000  Biso   1.000  C 
  C55      1.0000 0.86000  0.19100  0.89300  Biso   1.000  C 
  H63      1.0000 0.89410  0.13750  0.86320  Biso   1.000  H 
  H64      1.0000 0.92020  0.24720  0.92060  Biso   1.000  H 
  H65      1.0000 0.79730  0.21470  0.86240  Biso   1.000  H 
  H66      1.0000 0.87200  0.12680  0.97090  Biso   1.000  H 
  H67      1.0000 0.74490  0.10170  0.91440  Biso   1.000  H 
  C56      1.0000 0.66330  0.33570  0.93630  Biso   1.000  C 
  C57      1.0000 0.69900  0.41850  0.91970  Biso   1.000  C 
  H68      1.0000 0.77830  0.44660  0.93730  Biso   1.000  H 
  C58      1.0000 0.62070  0.45990  0.87800  Biso   1.000  C 
  H69      1.0000 0.64760  0.51710  0.86810  Biso   1.000  H 
  N10      1.0000 0.50830  0.42380  0.85040  Biso   1.000  N 
  C59      1.0000 0.47290  0.34490  0.86540  Biso   1.000  C 
  C60      1.0000 0.54580  0.30020  0.90810  Biso   1.000  C 
  H70      1.0000 0.51540  0.24470  0.91840  Biso   1.000  H 
  H71      1.0000 0.39350  0.31770  0.84590  Biso   1.000  H 
  Ag6      1.0000 0.39227  0.49036  0.78361  Biso   1.000  Ag
  N11      1.0000 0.26770  0.56860  0.73200  Biso   1.000  N 
  C61      1.0000 0.15330  0.54150  0.71730  Biso   1.000  C 
  H72      1.0000 0.12920  0.48140  0.72470  Biso   1.000  H 
  C62      1.0000 0.06870  0.59580  0.69220  Biso   1.000  C 
  C63      1.0000 0.09980  0.68370  0.67960  Biso   1.000  C 
  C64      1.0000 0.21830  0.71000  0.69360  Biso   1.000  C 
  H73      1.0000 0.24470  0.76930  0.68590  Biso   1.000  H 
  C65      1.0000 0.29930  0.65140  0.71860  Biso   1.000  C 
  H74      1.0000 0.38000  0.67080  0.72650  Biso   1.000  H 
  Si6      1.0000 0.98540  0.76660  0.65557  Biso   1.000  Si
  C66      1.0000 0.84780  0.68790  0.59860  Biso   1.000  C 
  H75      1.0000 0.78610  0.73280  0.59180  Biso   1.000  H 
  H76      1.0000 0.82340  0.64470  0.62430  Biso   1.000  H 
  C67      1.0000 0.85420  0.62430  0.52940  Biso   1.000  C 
  H77      1.0000 0.77800  0.58610  0.50340  Biso   1.000  H 
  H78      1.0000 0.91310  0.57770  0.53520  Biso   1.000  H 
  H79      1.0000 0.87600  0.66610  0.50270  Biso   1.000  H 
  C68      1.0000 0.96880  0.84110  0.74490  Biso   1.000  C 
  C69      1.0000 0.89420  0.80790  0.77830  Biso   1.000  C 
  H80      1.0000 0.83910  0.75070  0.75250  Biso   1.000  H 
  C70      1.0000 0.89910  0.85660  0.84830  Biso   1.000  C 
  H81      1.0000 0.84660  0.83180  0.86940  Biso   1.000  H 
  N12      1.0000 0.97430  0.93740  0.88800  Biso   1.000  N 
  C71      1.0000 0.04300  0.97330  0.85540  Biso   1.000  C 
  C72      1.0000 0.04100  0.92930  0.78530  Biso   1.000  C 
  H82      1.0000 0.08920  0.95920  0.76420  Biso   1.000  H 
  H83      1.0000 0.09540  0.03200  0.88210  Biso   1.000  H 
  C73      1.0000 0.03670  0.85450  0.61230  Biso   1.000  C 
  H84      1.0000 0.05180  0.81410  0.56700  Biso   1.000  H 
  H85      1.0000 0.11170  0.89240  0.64340  Biso   1.000  H 
  C74      1.0000 0.95530  0.92550  0.59790  Biso   1.000  C 
  H86      1.0000 0.88090  0.88890  0.56660  Biso   1.000  H 
  H87      1.0000 0.98760  0.96750  0.57480  Biso   1.000  H 
  H88      1.0000 0.94230  0.96810  0.64260  Biso   1.000  H 
  H89      1.0000 0.98860  0.57330  0.68340  Biso   1.000  H 
  C75      1.0000 0.69600  0.19180  0.02650  Biso   1.000  C 
  C76      1.0000 0.66000  0.26000  0.08500  Biso   1.000  C 
  H90      1.0000 0.63030  0.31760  0.07160  Biso   1.000  H 
  H91      1.0000 0.59810  0.22490  0.09620  Biso   1.000  H 
  H92      1.0000 0.72690  0.28310  0.12660  Biso   1.000  H 
  H93      1.0000 0.75020  0.14690  0.04350  Biso   1.000  H 
  H94      1.0000 0.62720  0.15000  0.99030  Biso   1.000  H 
  O1       1.0000 0.14000  0.60710  0.36970  Biso   1.000  O 
  H95      1.0000 0.13810  0.54560  0.38280  Biso   1.000  H 
  C77      1.0000 0.19000  0.69470  0.42800  Biso   1.000  C 
  C78      1.0000 0.19700  0.63900  0.48140  Biso   1.000  C 
  H96      1.0000 0.12460  0.59400  0.46860  Biso   1.000  H 
  H97      1.0000 0.26340  0.59860  0.48110  Biso   1.000  H 
  H98      1.0000 0.20690  0.68680  0.52880  Biso   1.000  H 
  H99      1.0000 0.26760  0.72140  0.42700  Biso   1.000  H 
  H100     1.0000 0.13740  0.74840  0.43370  Biso   1.000  H 
  H101     1.0000 0.55300  0.85060  0.31710  Biso   1.000  H 
  C79      1.0000 0.59200  0.99080  0.21820  Biso   1.000  C 
  C80      1.0000 0.58580  0.98040  0.14860  Biso   1.000  C 
  H102     1.0000 0.62950  0.93250  0.12470  Biso   1.000  H 
  H103     1.0000 0.64000  0.95110  0.24110  Biso   1.000  H 
  H104     1.0000 0.42260  0.14440  0.12580  Biso   1.000  H 
  C81      1.0000 0.55090  0.82540  0.61170  Biso   1.000  C 
  H105     1.0000 0.50650  0.76460  0.61170  Biso   1.000  H 
  C82      1.0000 0.56220  0.80970  0.54020  Biso   1.000  C 
  H106     1.0000 0.60070  0.74900  0.52530  Biso   1.000  H 
  H107     1.0000 0.60900  0.86770  0.53930  Biso   1.000  H 
  H108     1.0000 0.48450  0.80200  0.50780  Biso   1.000  H 
  H109     1.0000 0.63010  0.83070  0.64310  Biso   1.000  H 
  H110     1.0000 0.83420  0.15740  0.69040  Biso   1.000  H 
  O2       1.0000 0.86000  0.39290  0.63030  Biso   1.000  O 
  H111     1.0000 0.86190  0.45440  0.61720  Biso   1.000  H 
  C83      1.0000 0.81000  0.30530  0.57200  Biso   1.000  C 
  H112     1.0000 0.86260  0.25160  0.56630  Biso   1.000  H 
  H113     1.0000 0.73240  0.27860  0.57300  Biso   1.000  H 
  C84      1.0000 0.80300  0.36100  0.51860  Biso   1.000  C 
  H114     1.0000 0.79310  0.31320  0.47120  Biso   1.000  H 
  H115     1.0000 0.87540  0.40600  0.53140  Biso   1.000  H 
  H116     1.0000 0.73660  0.40140  0.51890  Biso   1.000  H 
  C85      1.0000 0.45420  0.69980  0.09190  Biso   1.000  C 
  H117     1.0000 0.48460  0.75530  0.08160  Biso   1.000  H 
  C86      1.0000 0.52710  0.65510  0.13460  Biso   1.000  C 
  H118     1.0000 0.60650  0.68230  0.15410  Biso   1.000  H 
  C87      1.0000 0.95900  0.07070  0.21470  Biso   1.000  C 
  H119     1.0000 0.91080  0.04080  0.23580  Biso   1.000  H 
  C88      1.0000 0.95700  0.02670  0.14460  Biso   1.000  C 
  H120     1.0000 0.90460  0.96800  0.11790  Biso   1.000  H 
