data_image0
_cell_length_a       13.8903
_cell_length_b       25.279
_cell_length_c       8.48205
_cell_angle_alpha    90
_cell_angle_beta     97.4208
_cell_angle_gamma    90

_symmetry_space_group_name_H-M    "P 1"
_symmetry_int_tables_number       1

loop_
  _symmetry_equiv_pos_as_xyz
  'x, y, z'

loop_
  _atom_site_label
  _atom_site_occupancy
  _atom_site_fract_x
  _atom_site_fract_y
  _atom_site_fract_z
  _atom_site_thermal_displace_type
  _atom_site_B_iso_or_equiv
  _atom_site_type_symbol
  Cd1      1.0000 0.83587  0.40645  0.45351  Biso   1.000  Cd
  N1       1.0000 0.70180  0.44610  0.52570  Biso   1.000  N 
  C1       1.0000 0.62110  0.41580  0.51020  Biso   1.000  C 
  H1       1.0000 0.62446  0.38207  0.46750  Biso   1.000  H 
  C2       1.0000 0.53410  0.43240  0.55460  Biso   1.000  C 
  H2       1.0000 0.48059  0.40999  0.54304  Biso   1.000  H 
  C3       1.0000 0.52670  0.48320  0.61690  Biso   1.000  C 
  C4       1.0000 0.60890  0.51460  0.62900  Biso   1.000  C 
  C5       1.0000 0.69420  0.49470  0.58380  Biso   1.000  C 
  H3       1.0000 0.74887  0.51632  0.59452  Biso   1.000  H 
  H4       1.0000 0.60687  0.54898  0.66730  Biso   1.000  H 
  C6       1.0000 0.43560  0.50260  0.67150  Biso   1.000  C 
  H5       1.0000 0.43558  0.53749  0.70609  Biso   1.000  H 
  C7       1.0000 0.35700  0.47640  0.67620  Biso   1.000  C 
  H6       1.0000 0.35678  0.44139  0.64241  Biso   1.000  H 
  C8       1.0000 0.26770  0.49620  0.72940  Biso   1.000  C 
  C9       1.0000 0.19190  0.46210  0.74150  Biso   1.000  C 
  H7       1.0000 0.19779  0.42649  0.71701  Biso   1.000  H 
  C10      1.0000 0.10550  0.48110  0.79090  Biso   1.000  C 
  H8       1.0000 0.05530  0.45744  0.80092  Biso   1.000  H 
  C11      1.0000 0.09330  0.53300  0.82460  Biso   1.000  C 
  C12      1.0000 0.16930  0.56740  0.81130  Biso   1.000  C 
  H9       1.0000 0.16258  0.60301  0.83537  Biso   1.000  H 
  C13      1.0000 0.25540  0.54970  0.76260  Biso   1.000  C 
  H10      1.0000 0.30514  0.57353  0.75208  Biso   1.000  H 
  C14      1.0000 0.00040  0.55350  0.87720  Biso   1.000  C 
  Cd2      1.0000 0.83587  0.59355  0.95351  Biso   1.000  Cd
  O1       1.0000 0.99400  0.60210  0.90300  Biso   1.000  O 
  O2       1.0000 0.93190  0.52260  0.89100  Biso   1.000  O 
  O3       1.0000 0.76100  0.67950  0.86010  Biso   1.000  O 
  C15      1.0000 0.74380  0.65900  0.72680  Biso   1.000  C 
  C16      1.0000 0.69350  0.69000  0.59080  Biso   1.000  C 
  C17      1.0000 0.68250  0.66730  0.43640  Biso   1.000  C 
  H11      1.0000 0.70616  0.63366  0.41976  Biso   1.000  H 
  C18      1.0000 0.63570  0.69650  0.31080  Biso   1.000  C 
  H12      1.0000 0.62721  0.68167  0.20963  Biso   1.000  H 
  C19      1.0000 0.60030  0.74820  0.33210  Biso   1.000  C 
  C20      1.0000 0.60970  0.76730  0.48380  Biso   1.000  C 
  C21      1.0000 0.65650  0.74050  0.60790  Biso   1.000  C 
  H13      1.0000 0.66443  0.75626  0.70787  Biso   1.000  H 
  H14      1.0000 0.58273  0.80007  0.50216  Biso   1.000  H 
  C22      1.0000 0.54700  0.78640  0.22500  Biso   1.000  C 
  H15      1.0000 0.53165  0.81961  0.26184  Biso   1.000  H 
  C23      1.0000 0.52070  0.77300  0.07400  Biso   1.000  C 
  H16      1.0000 0.53373  0.73941  0.03712  Biso   1.000  H 
  C24      1.0000 0.46890  0.81410  0.96170  Biso   1.000  C 
  C25      1.0000 0.44860  0.78920  0.82290  Biso   1.000  C 
  H17      1.0000 0.46584  0.75388  0.81501  Biso   1.000  H 
  C26      1.0000 0.40210  0.81510  0.68970  Biso   1.000  C 
  H18      1.0000 0.38545  0.79593  0.59652  Biso   1.000  H 
  N2       1.0000 0.38090  0.86600  0.69160  Biso   1.000  N 
  C27      1.0000 0.39900  0.89100  0.83200  Biso   1.000  C 
  H19      1.0000 0.38243  0.92653  0.83917  Biso   1.000  H 
  C28      1.0000 0.44230  0.86470  0.96640  Biso   1.000  C 
  H20      1.0000 0.45293  0.88286  0.06246  Biso   1.000  H 
  Cd3      1.0000 0.33587  0.90645  0.45351  Biso   1.000  Cd
  C29      1.0000 0.50040  0.94650  0.37720  Biso   1.000  C 
  C30      1.0000 0.59330  0.96700  0.32460  Biso   1.000  C 
  C31      1.0000 0.66930  0.93260  0.31130  Biso   1.000  C 
  H21      1.0000 0.66258  0.89699  0.33536  Biso   1.000  H 
  C32      1.0000 0.75540  0.95030  0.26260  Biso   1.000  C 
  H22      1.0000 0.80514  0.92647  0.25208  Biso   1.000  H 
  C33      1.0000 0.76770  0.00380  0.22940  Biso   1.000  C 
  C34      1.0000 0.85700  0.02360  0.17620  Biso   1.000  C 
  H23      1.0000 0.85678  0.05861  0.14241  Biso   1.000  H 
  C35      1.0000 0.93560  0.99740  0.17150  Biso   1.000  C 
  H24      1.0000 0.93558  0.96251  0.20609  Biso   1.000  H 
  C36      1.0000 0.02670  0.01680  0.11690  Biso   1.000  C 
  C37      1.0000 0.03410  0.06760  0.05460  Biso   1.000  C 
  C38      1.0000 0.12110  0.08420  0.01020  Biso   1.000  C 
  N3       1.0000 0.20180  0.05390  0.02570  Biso   1.000  N 
  C39      1.0000 0.19420  0.00530  0.08380  Biso   1.000  C 
  C40      1.0000 0.10890  0.98540  0.12900  Biso   1.000  C 
  H25      1.0000 0.10687  0.95102  0.16730  Biso   1.000  H 
  H26      1.0000 0.24887  0.98368  0.09452  Biso   1.000  H 
  Cd4      1.0000 0.33587  0.09355  0.95351  Biso   1.000  Cd
  C41      1.0000 0.24380  0.15900  0.72680  Biso   1.000  C 
  C42      1.0000 0.19350  0.19000  0.59080  Biso   1.000  C 
  C43      1.0000 0.18250  0.16730  0.43640  Biso   1.000  C 
  H27      1.0000 0.20616  0.13366  0.41976  Biso   1.000  H 
  C44      1.0000 0.13570  0.19650  0.31080  Biso   1.000  C 
  H28      1.0000 0.12721  0.18167  0.20963  Biso   1.000  H 
  C45      1.0000 0.10030  0.24820  0.33210  Biso   1.000  C 
  C46      1.0000 0.04700  0.28640  0.22500  Biso   1.000  C 
  C47      1.0000 0.02070  0.27300  0.07400  Biso   1.000  C 
  H29      1.0000 0.03373  0.23941  0.03712  Biso   1.000  H 
  C48      1.0000 0.96890  0.31410  0.96170  Biso   1.000  C 
  C49      1.0000 0.94860  0.28920  0.82290  Biso   1.000  C 
  H30      1.0000 0.96584  0.25388  0.81501  Biso   1.000  H 
  C50      1.0000 0.90210  0.31510  0.68970  Biso   1.000  C 
  H31      1.0000 0.88545  0.29593  0.59652  Biso   1.000  H 
  N4       1.0000 0.88090  0.36600  0.69160  Biso   1.000  N 
  C51      1.0000 0.89900  0.39100  0.83200  Biso   1.000  C 
  H32      1.0000 0.88243  0.42653  0.83917  Biso   1.000  H 
  C52      1.0000 0.94230  0.36470  0.96640  Biso   1.000  C 
  H33      1.0000 0.95293  0.38286  0.06246  Biso   1.000  H 
  H34      1.0000 0.03165  0.31961  0.26184  Biso   1.000  H 
  C53      1.0000 0.10970  0.26730  0.48380  Biso   1.000  C 
  C54      1.0000 0.15650  0.24050  0.60790  Biso   1.000  C 
  H35      1.0000 0.16443  0.25627  0.70787  Biso   1.000  H 
  H36      1.0000 0.08273  0.30007  0.50216  Biso   1.000  H 
  O4       1.0000 0.26100  0.17950  0.86010  Biso   1.000  O 
  O5       1.0000 0.26540  0.11190  0.70210  Biso   1.000  O 
  C55      1.0000 0.50040  0.05350  0.87720  Biso   1.000  C 
  C56      1.0000 0.59330  0.03300  0.82460  Biso   1.000  C 
  C57      1.0000 0.66930  0.06740  0.81130  Biso   1.000  C 
  C58      1.0000 0.75540  0.04970  0.76260  Biso   1.000  C 
  H37      1.0000 0.80514  0.07353  0.75208  Biso   1.000  H 
  C59      1.0000 0.76770  0.99620  0.72940  Biso   1.000  C 
  C60      1.0000 0.85700  0.97640  0.67620  Biso   1.000  C 
  H38      1.0000 0.85678  0.94139  0.64241  Biso   1.000  H 
  C61      1.0000 0.93560  0.00260  0.67150  Biso   1.000  C 
  H39      1.0000 0.93558  0.03749  0.70609  Biso   1.000  H 
  C62      1.0000 0.02670  0.98320  0.61690  Biso   1.000  C 
  C63      1.0000 0.03410  0.93240  0.55460  Biso   1.000  C 
  C64      1.0000 0.12110  0.91580  0.51020  Biso   1.000  C 
  H40      1.0000 0.12446  0.88207  0.46750  Biso   1.000  H 
  N5       1.0000 0.20180  0.94610  0.52570  Biso   1.000  N 
  C65      1.0000 0.19420  0.99470  0.58380  Biso   1.000  C 
  H41      1.0000 0.24887  0.01632  0.59452  Biso   1.000  H 
  C66      1.0000 0.10890  0.01460  0.62900  Biso   1.000  C 
  H42      1.0000 0.10687  0.04898  0.66730  Biso   1.000  H 
  H43      1.0000 0.98059  0.90999  0.54304  Biso   1.000  H 
  C67      1.0000 0.69190  0.96210  0.74150  Biso   1.000  C 
  H44      1.0000 0.69779  0.92649  0.71701  Biso   1.000  H 
  C68      1.0000 0.60550  0.98110  0.79090  Biso   1.000  C 
  H45      1.0000 0.55530  0.95744  0.80092  Biso   1.000  H 
  H46      1.0000 0.66258  0.10301  0.83537  Biso   1.000  H 
  O6       1.0000 0.43190  0.02260  0.89100  Biso   1.000  O 
  O7       1.0000 0.49400  0.10210  0.90300  Biso   1.000  O 
  N6       1.0000 0.38090  0.13400  0.19160  Biso   1.000  N 
  C69      1.0000 0.40210  0.18490  0.18970  Biso   1.000  C 
  H47      1.0000 0.38545  0.20407  0.09652  Biso   1.000  H 
  C70      1.0000 0.44860  0.21080  0.32290  Biso   1.000  C 
  H48      1.0000 0.46584  0.24612  0.31501  Biso   1.000  H 
  C71      1.0000 0.46890  0.18590  0.46170  Biso   1.000  C 
  C72      1.0000 0.44230  0.13530  0.46640  Biso   1.000  C 
  H49      1.0000 0.45293  0.11714  0.56246  Biso   1.000  H 
  C73      1.0000 0.39900  0.10900  0.33200  Biso   1.000  C 
  H50      1.0000 0.38243  0.07347  0.33917  Biso   1.000  H 
  C74      1.0000 0.52070  0.22700  0.57400  Biso   1.000  C 
  H51      1.0000 0.53373  0.26059  0.53712  Biso   1.000  H 
  C75      1.0000 0.54700  0.21360  0.72500  Biso   1.000  C 
  H52      1.0000 0.53165  0.18039  0.76184  Biso   1.000  H 
  C76      1.0000 0.60030  0.25180  0.83210  Biso   1.000  C 
  C77      1.0000 0.60970  0.23270  0.98380  Biso   1.000  C 
  C78      1.0000 0.65650  0.25950  0.10790  Biso   1.000  C 
  H53      1.0000 0.66443  0.24373  0.20787  Biso   1.000  H 
  C79      1.0000 0.69350  0.31000  0.09080  Biso   1.000  C 
  C80      1.0000 0.74380  0.34100  0.22680  Biso   1.000  C 
  O8       1.0000 0.76100  0.32050  0.36010  Biso   1.000  O 
  O9       1.0000 0.76540  0.38810  0.20210  Biso   1.000  O 
  C81      1.0000 0.68250  0.33270  0.93640  Biso   1.000  C 
  C82      1.0000 0.63570  0.30350  0.81080  Biso   1.000  C 
  H54      1.0000 0.62721  0.31833  0.70963  Biso   1.000  H 
  H55      1.0000 0.70616  0.36634  0.91976  Biso   1.000  H 
  H56      1.0000 0.58273  0.19993  0.00216  Biso   1.000  H 
  H57      1.0000 0.12446  0.11793  0.96750  Biso   1.000  H 
  H58      1.0000 0.98059  0.09001  0.04304  Biso   1.000  H 
  C83      1.0000 0.69190  0.03790  0.24150  Biso   1.000  C 
  C84      1.0000 0.60550  0.01890  0.29090  Biso   1.000  C 
  H59      1.0000 0.55530  0.04256  0.30092  Biso   1.000  H 
  H60      1.0000 0.69779  0.07351  0.21701  Biso   1.000  H 
  O10      1.0000 0.43190  0.97740  0.39100  Biso   1.000  O 
  O11      1.0000 0.49400  0.89790  0.40300  Biso   1.000  O 
  O12      1.0000 0.26100  0.82050  0.36010  Biso   1.000  O 
  C85      1.0000 0.24380  0.84100  0.22680  Biso   1.000  C 
  C86      1.0000 0.19350  0.81000  0.09080  Biso   1.000  C 
  C87      1.0000 0.15650  0.75950  0.10790  Biso   1.000  C 
  H61      1.0000 0.16443  0.74374  0.20787  Biso   1.000  H 
  C88      1.0000 0.10970  0.73270  0.98380  Biso   1.000  C 
  H62      1.0000 0.08273  0.69993  0.00216  Biso   1.000  H 
  C89      1.0000 0.10030  0.75180  0.83210  Biso   1.000  C 
  C90      1.0000 0.04700  0.71360  0.72500  Biso   1.000  C 
  C91      1.0000 0.02070  0.72700  0.57400  Biso   1.000  C 
  H63      1.0000 0.03373  0.76059  0.53712  Biso   1.000  H 
  C92      1.0000 0.96890  0.68590  0.46170  Biso   1.000  C 
  C93      1.0000 0.94230  0.63530  0.46640  Biso   1.000  C 
  H64      1.0000 0.95293  0.61714  0.56246  Biso   1.000  H 
  C94      1.0000 0.89900  0.60900  0.33200  Biso   1.000  C 
  H65      1.0000 0.88243  0.57347  0.33917  Biso   1.000  H 
  N7       1.0000 0.88090  0.63400  0.19160  Biso   1.000  N 
  C95      1.0000 0.90210  0.68490  0.18970  Biso   1.000  C 
  H66      1.0000 0.88545  0.70407  0.09652  Biso   1.000  H 
  C96      1.0000 0.94860  0.71080  0.32290  Biso   1.000  C 
  H67      1.0000 0.96584  0.74612  0.31501  Biso   1.000  H 
  H68      1.0000 0.03165  0.68039  0.76184  Biso   1.000  H 
  C97      1.0000 0.13570  0.80350  0.81080  Biso   1.000  C 
  H69      1.0000 0.12721  0.81833  0.70963  Biso   1.000  H 
  C98      1.0000 0.18250  0.83270  0.93640  Biso   1.000  C 
  H70      1.0000 0.20616  0.86634  0.91976  Biso   1.000  H 
  O13      1.0000 0.26540  0.88810  0.20210  Biso   1.000  O 
  O14      1.0000 0.76540  0.61190  0.70210  Biso   1.000  O 
  N8       1.0000 0.70180  0.55390  0.02570  Biso   1.000  N 
  C99      1.0000 0.62110  0.58420  0.01020  Biso   1.000  C 
  C100     1.0000 0.53410  0.56760  0.05460  Biso   1.000  C 
  H71      1.0000 0.48059  0.59001  0.04304  Biso   1.000  H 
  C101     1.0000 0.52670  0.51680  0.11690  Biso   1.000  C 
  C102     1.0000 0.60890  0.48540  0.12900  Biso   1.000  C 
  H72      1.0000 0.60687  0.45102  0.16730  Biso   1.000  H 
  C103     1.0000 0.69420  0.50530  0.08380  Biso   1.000  C 
  H73      1.0000 0.74887  0.48368  0.09452  Biso   1.000  H 
  C104     1.0000 0.43560  0.49740  0.17150  Biso   1.000  C 
  H74      1.0000 0.43558  0.46251  0.20609  Biso   1.000  H 
  C105     1.0000 0.35700  0.52360  0.17620  Biso   1.000  C 
  H75      1.0000 0.35678  0.55861  0.14241  Biso   1.000  H 
  C106     1.0000 0.26770  0.50380  0.22940  Biso   1.000  C 
  C107     1.0000 0.19190  0.53790  0.24150  Biso   1.000  C 
  C108     1.0000 0.10550  0.51890  0.29090  Biso   1.000  C 
  H76      1.0000 0.05530  0.54256  0.30092  Biso   1.000  H 
  C109     1.0000 0.09330  0.46700  0.32460  Biso   1.000  C 
  C110     1.0000 0.16930  0.43260  0.31130  Biso   1.000  C 
  H77      1.0000 0.16258  0.39699  0.33536  Biso   1.000  H 
  C111     1.0000 0.25540  0.45030  0.26260  Biso   1.000  C 
  H78      1.0000 0.30514  0.42647  0.25208  Biso   1.000  H 
  C112     1.0000 0.00040  0.44650  0.37720  Biso   1.000  C 
  O15      1.0000 0.93190  0.47740  0.39100  Biso   1.000  O 
  O16      1.0000 0.99400  0.39790  0.40300  Biso   1.000  O 
  H79      1.0000 0.19779  0.57351  0.21701  Biso   1.000  H 
  H80      1.0000 0.62446  0.61793  0.96750  Biso   1.000  H 
