data_image0
_cell_length_a       21.343
_cell_length_b       15.26
_cell_length_c       16.658
_cell_angle_alpha    90
_cell_angle_beta     127.094
_cell_angle_gamma    90

_symmetry_space_group_name_H-M    "P 1"
_symmetry_int_tables_number       1

loop_
  _symmetry_equiv_pos_as_xyz
  'x, y, z'

loop_
  _atom_site_label
  _atom_site_occupancy
  _atom_site_fract_x
  _atom_site_fract_y
  _atom_site_fract_z
  _atom_site_thermal_displace_type
  _atom_site_B_iso_or_equiv
  _atom_site_type_symbol
  Ni1      1.0000 0.13394  0.25125  0.62064  Biso   1.000  Ni
  Ni2      1.0000 0.63394  0.75125  0.62064  Biso   1.000  Ni
  Ni3      1.0000 0.86606  0.25125  0.87936  Biso   1.000  Ni
  Ni4      1.0000 0.36607  0.75125  0.87936  Biso   1.000  Ni
  Ni5      1.0000 0.86606  0.74875  0.37936  Biso   1.000  Ni
  Ni6      1.0000 0.36606  0.24875  0.37936  Biso   1.000  Ni
  Ni7      1.0000 0.13394  0.74875  0.12064  Biso   1.000  Ni
  Ni8      1.0000 0.63394  0.24875  0.12064  Biso   1.000  Ni
  Cr1      1.0000 0.33243  0.20390  0.77624  Biso   1.000  Cr
  Cr2      1.0000 0.83243  0.70390  0.77624  Biso   1.000  Cr
  Cr3      1.0000 0.66757  0.20390  0.72376  Biso   1.000  Cr
  Cr4      1.0000 0.16757  0.70390  0.72376  Biso   1.000  Cr
  Cr5      1.0000 0.66757  0.79610  0.22376  Biso   1.000  Cr
  Cr6      1.0000 0.16757  0.29610  0.22376  Biso   1.000  Cr
  Cr7      1.0000 0.33243  0.79610  0.27624  Biso   1.000  Cr
  Cr8      1.0000 0.83243  0.29610  0.27624  Biso   1.000  Cr
  Cr9      1.0000 0.42678  0.26482  0.00533  Biso   1.000  Cr
  Cr10     1.0000 0.92678  0.76482  0.00533  Biso   1.000  Cr
  Cr11     1.0000 0.57322  0.26482  0.49467  Biso   1.000  Cr
  Cr12     1.0000 0.07322  0.76482  0.49467  Biso   1.000  Cr
  Cr13     1.0000 0.57322  0.73518  0.99467  Biso   1.000  Cr
  Cr14     1.0000 0.07322  0.23518  0.99467  Biso   1.000  Cr
  Cr15     1.0000 0.42678  0.73518  0.50533  Biso   1.000  Cr
  Cr16     1.0000 0.92678  0.23518  0.50533  Biso   1.000  Cr
  O1       1.0000 0.25321  0.26572  0.70270  Biso   1.000  O 
  O2       1.0000 0.75321  0.76572  0.70270  Biso   1.000  O 
  O3       1.0000 0.74679  0.26572  0.79730  Biso   1.000  O 
  O4       1.0000 0.24679  0.76572  0.79730  Biso   1.000  O 
  O5       1.0000 0.74679  0.73428  0.29730  Biso   1.000  O 
  O6       1.0000 0.24679  0.23428  0.29730  Biso   1.000  O 
  O7       1.0000 0.25321  0.73428  0.20270  Biso   1.000  O 
  O8       1.0000 0.75321  0.23428  0.20270  Biso   1.000  O 
  O9       1.0000 0.31487  0.10568  0.73330  Biso   1.000  O 
  O10      1.0000 0.81487  0.60568  0.73330  Biso   1.000  O 
  O11      1.0000 0.68513  0.10568  0.76670  Biso   1.000  O 
  O12      1.0000 0.18513  0.60568  0.76670  Biso   1.000  O 
  O13      1.0000 0.68513  0.89432  0.26670  Biso   1.000  O 
  O14      1.0000 0.18513  0.39432  0.26670  Biso   1.000  O 
  O15      1.0000 0.31487  0.89432  0.23330  Biso   1.000  O 
  O16      1.0000 0.81487  0.39432  0.23330  Biso   1.000  O 
  O17      1.0000 0.40446  0.24397  0.78138  Biso   1.000  O 
  O18      1.0000 0.90446  0.74397  0.78138  Biso   1.000  O 
  O19      1.0000 0.59554  0.24397  0.71862  Biso   1.000  O 
  O20      1.0000 0.09554  0.74397  0.71862  Biso   1.000  O 
  O21      1.0000 0.59554  0.75603  0.21862  Biso   1.000  O 
  O22      1.0000 0.09554  0.25603  0.21862  Biso   1.000  O 
  O23      1.0000 0.40446  0.75603  0.28138  Biso   1.000  O 
  O24      1.0000 0.90446  0.25603  0.28138  Biso   1.000  O 
  O25      1.0000 0.35578  0.19958  0.89870  Biso   1.000  O 
  O26      1.0000 0.85578  0.69958  0.89870  Biso   1.000  O 
  O27      1.0000 0.64422  0.19958  0.60130  Biso   1.000  O 
  O28      1.0000 0.14422  0.69958  0.60130  Biso   1.000  O 
  O29      1.0000 0.64422  0.80042  0.10130  Biso   1.000  O 
  O30      1.0000 0.14422  0.30042  0.10130  Biso   1.000  O 
  O31      1.0000 0.35578  0.80042  0.39870  Biso   1.000  O 
  O32      1.0000 0.85578  0.30042  0.39870  Biso   1.000  O 
  O33      1.0000 0.40137  0.36647  0.98216  Biso   1.000  O 
  O34      1.0000 0.90137  0.86647  0.98216  Biso   1.000  O 
  O35      1.0000 0.59863  0.36647  0.51784  Biso   1.000  O 
  O36      1.0000 0.09863  0.86647  0.51784  Biso   1.000  O 
  O37      1.0000 0.59863  0.63353  0.01784  Biso   1.000  O 
  O38      1.0000 0.09863  0.13353  0.01784  Biso   1.000  O 
  O39      1.0000 0.40137  0.63353  0.48216  Biso   1.000  O 
  O40      1.0000 0.90137  0.13353  0.48216  Biso   1.000  O 
  O41      1.0000 0.42760  0.23169  0.09782  Biso   1.000  O 
  O42      1.0000 0.92760  0.73169  0.09782  Biso   1.000  O 
  O43      1.0000 0.57240  0.23169  0.40218  Biso   1.000  O 
  O44      1.0000 0.07240  0.73169  0.40218  Biso   1.000  O 
  O45      1.0000 0.57240  0.76831  0.90218  Biso   1.000  O 
  O46      1.0000 0.07240  0.26831  0.90218  Biso   1.000  O 
  O47      1.0000 0.42760  0.76831  0.59782  Biso   1.000  O 
  O48      1.0000 0.92760  0.26831  0.59782  Biso   1.000  O 
  O49      1.0000 0.51402  0.25213  0.03205  Biso   1.000  O 
  O50      1.0000 0.01402  0.75213  0.03205  Biso   1.000  O 
  O51      1.0000 0.48598  0.25213  0.46795  Biso   1.000  O 
  O52      1.0000 0.98598  0.75213  0.46795  Biso   1.000  O 
  O53      1.0000 0.48598  0.74787  0.96795  Biso   1.000  O 
  O54      1.0000 0.98598  0.24787  0.96795  Biso   1.000  O 
  O55      1.0000 0.51402  0.74787  0.53205  Biso   1.000  O 
  O56      1.0000 0.01402  0.24787  0.53205  Biso   1.000  O 
  N1       1.0000 0.12171  0.35891  0.52794  Biso   1.000  N 
  N2       1.0000 0.62171  0.85891  0.52794  Biso   1.000  N 
  N3       1.0000 0.87829  0.35891  0.97206  Biso   1.000  N 
  N4       1.0000 0.37829  0.85891  0.97206  Biso   1.000  N 
  N5       1.0000 0.87829  0.64109  0.47206  Biso   1.000  N 
  N6       1.0000 0.37829  0.14109  0.47206  Biso   1.000  N 
  N7       1.0000 0.12171  0.64109  0.02794  Biso   1.000  N 
  N8       1.0000 0.62171  0.14109  0.02794  Biso   1.000  N 
  N9       1.0000 0.13155  0.16338  0.52288  Biso   1.000  N 
  N10      1.0000 0.63155  0.66338  0.52288  Biso   1.000  N 
  N11      1.0000 0.86845  0.16338  0.97712  Biso   1.000  N 
  N12      1.0000 0.36845  0.66338  0.97712  Biso   1.000  N 
  N13      1.0000 0.86845  0.83662  0.47712  Biso   1.000  N 
  N14      1.0000 0.36845  0.33662  0.47712  Biso   1.000  N 
  N15      1.0000 0.13155  0.83662  0.02288  Biso   1.000  N 
  N16      1.0000 0.63155  0.33662  0.02288  Biso   1.000  N 
  N17      1.0000 0.13357  0.85588  0.20560  Biso   1.000  N 
  N18      1.0000 0.63357  0.35588  0.20560  Biso   1.000  N 
  N19      1.0000 0.86643  0.85588  0.29440  Biso   1.000  N 
  N20      1.0000 0.36643  0.35588  0.29440  Biso   1.000  N 
  N21      1.0000 0.86643  0.14412  0.79440  Biso   1.000  N 
  N22      1.0000 0.36643  0.64412  0.79440  Biso   1.000  N 
  N23      1.0000 0.13357  0.14412  0.70560  Biso   1.000  N 
  N24      1.0000 0.63357  0.64412  0.70560  Biso   1.000  N 
  N25      1.0000 0.13908  0.65958  0.21796  Biso   1.000  N 
  N26      1.0000 0.63908  0.15958  0.21796  Biso   1.000  N 
  N27      1.0000 0.86092  0.65958  0.28204  Biso   1.000  N 
  N28      1.0000 0.36092  0.15958  0.28204  Biso   1.000  N 
  N29      1.0000 0.86092  0.34042  0.78204  Biso   1.000  N 
  N30      1.0000 0.36092  0.84042  0.78204  Biso   1.000  N 
  N31      1.0000 0.13908  0.34042  0.71796  Biso   1.000  N 
  N32      1.0000 0.63908  0.84042  0.71796  Biso   1.000  N 
  C1       1.0000 0.15302  0.43888  0.56355  Biso   1.000  C 
  C2       1.0000 0.65302  0.93888  0.56355  Biso   1.000  C 
  C3       1.0000 0.84698  0.43888  0.93645  Biso   1.000  C 
  C4       1.0000 0.34698  0.93888  0.93645  Biso   1.000  C 
  C5       1.0000 0.84698  0.56112  0.43645  Biso   1.000  C 
  C6       1.0000 0.34698  0.06112  0.43645  Biso   1.000  C 
  C7       1.0000 0.15302  0.56112  0.06355  Biso   1.000  C 
  C8       1.0000 0.65302  0.06112  0.06355  Biso   1.000  C 
  H1       1.0000 0.17350  0.45260  0.63090  Biso   1.000  H 
  H2       1.0000 0.67350  0.95260  0.63090  Biso   1.000  H 
  H3       1.0000 0.82650  0.45260  0.86910  Biso   1.000  H 
  H4       1.0000 0.32650  0.95260  0.86910  Biso   1.000  H 
  H5       1.0000 0.82650  0.54740  0.36910  Biso   1.000  H 
  H6       1.0000 0.32650  0.04740  0.36910  Biso   1.000  H 
  H7       1.0000 0.17350  0.54740  0.13090  Biso   1.000  H 
  H8       1.0000 0.67350  0.04740  0.13090  Biso   1.000  H 
  C9       1.0000 0.15693  0.50248  0.50702  Biso   1.000  C 
  C10      1.0000 0.65693  0.00248  0.50702  Biso   1.000  C 
  C11      1.0000 0.84307  0.50248  0.99298  Biso   1.000  C 
  C12      1.0000 0.34307  0.00248  0.99298  Biso   1.000  C 
  C13      1.0000 0.84307  0.49752  0.49298  Biso   1.000  C 
  C14      1.0000 0.34307  0.99752  0.49298  Biso   1.000  C 
  C15      1.0000 0.15693  0.49752  0.00702  Biso   1.000  C 
  C16      1.0000 0.65693  0.99752  0.00702  Biso   1.000  C 
  H9       1.0000 0.17750  0.55900  0.53440  Biso   1.000  H 
  H10      1.0000 0.67750  0.05900  0.53440  Biso   1.000  H 
  H11      1.0000 0.82250  0.55900  0.96560  Biso   1.000  H 
  H12      1.0000 0.32250  0.05900  0.96560  Biso   1.000  H 
  H13      1.0000 0.82250  0.44100  0.46560  Biso   1.000  H 
  H14      1.0000 0.32250  0.94100  0.46560  Biso   1.000  H 
  H15      1.0000 0.17750  0.44100  0.03440  Biso   1.000  H 
  H16      1.0000 0.67750  0.94100  0.03440  Biso   1.000  H 
  C17      1.0000 0.13002  0.48201  0.40908  Biso   1.000  C 
  C18      1.0000 0.63002  0.98201  0.40908  Biso   1.000  C 
  C19      1.0000 0.86998  0.48201  0.09092  Biso   1.000  C 
  C20      1.0000 0.36998  0.98201  0.09092  Biso   1.000  C 
  C21      1.0000 0.86998  0.51799  0.59092  Biso   1.000  C 
  C22      1.0000 0.36998  0.01799  0.59092  Biso   1.000  C 
  C23      1.0000 0.13002  0.51799  0.90908  Biso   1.000  C 
  C24      1.0000 0.63002  0.01799  0.90908  Biso   1.000  C 
  C25      1.0000 0.09568  0.39992  0.37108  Biso   1.000  C 
  C26      1.0000 0.59568  0.89992  0.37108  Biso   1.000  C 
  C27      1.0000 0.90432  0.39992  0.12892  Biso   1.000  C 
  C28      1.0000 0.40432  0.89992  0.12892  Biso   1.000  C 
  C29      1.0000 0.90432  0.60008  0.62892  Biso   1.000  C 
  C30      1.0000 0.40432  0.10008  0.62892  Biso   1.000  C 
  C31      1.0000 0.09568  0.60008  0.87108  Biso   1.000  C 
  C32      1.0000 0.59568  0.10008  0.87108  Biso   1.000  C 
  H17      1.0000 0.07620  0.38370  0.30470  Biso   1.000  H 
  H18      1.0000 0.57620  0.88370  0.30470  Biso   1.000  H 
  H19      1.0000 0.92380  0.38370  0.19530  Biso   1.000  H 
  H20      1.0000 0.42380  0.88370  0.19530  Biso   1.000  H 
  H21      1.0000 0.92380  0.61630  0.69530  Biso   1.000  H 
  H22      1.0000 0.42380  0.11630  0.69530  Biso   1.000  H 
  H23      1.0000 0.07620  0.61630  0.80470  Biso   1.000  H 
  H24      1.0000 0.57620  0.11630  0.80470  Biso   1.000  H 
  C33      1.0000 0.09025  0.34223  0.43078  Biso   1.000  C 
  C34      1.0000 0.59025  0.84223  0.43078  Biso   1.000  C 
  C35      1.0000 0.90975  0.34223  0.06922  Biso   1.000  C 
  C36      1.0000 0.40975  0.84223  0.06922  Biso   1.000  C 
  C37      1.0000 0.90975  0.65777  0.56922  Biso   1.000  C 
  C38      1.0000 0.40975  0.15777  0.56922  Biso   1.000  C 
  C39      1.0000 0.09025  0.65777  0.93078  Biso   1.000  C 
  C40      1.0000 0.59025  0.15777  0.93078  Biso   1.000  C 
  H25      1.0000 0.06320  0.28850  0.40210  Biso   1.000  H 
  H26      1.0000 0.56320  0.78850  0.40210  Biso   1.000  H 
  H27      1.0000 0.93680  0.28850  0.09790  Biso   1.000  H 
  H28      1.0000 0.43680  0.78850  0.09790  Biso   1.000  H 
  H29      1.0000 0.93680  0.71150  0.59790  Biso   1.000  H 
  H30      1.0000 0.43680  0.21150  0.59790  Biso   1.000  H 
  H31      1.0000 0.06320  0.71150  0.90210  Biso   1.000  H 
  H32      1.0000 0.56320  0.21150  0.90210  Biso   1.000  H 
  C41      1.0000 0.07940  0.60332  0.18138  Biso   1.000  C 
  C42      1.0000 0.57940  0.10332  0.18138  Biso   1.000  C 
  C43      1.0000 0.92060  0.60332  0.31862  Biso   1.000  C 
  C44      1.0000 0.42060  0.10332  0.31862  Biso   1.000  C 
  C45      1.0000 0.92060  0.39668  0.81862  Biso   1.000  C 
  C46      1.0000 0.42060  0.89668  0.81862  Biso   1.000  C 
  C47      1.0000 0.07940  0.39668  0.68138  Biso   1.000  C 
  C48      1.0000 0.57940  0.89668  0.68138  Biso   1.000  C 
  H33      1.0000 0.03790  0.60370  0.11120  Biso   1.000  H 
  H34      1.0000 0.53790  0.10370  0.11120  Biso   1.000  H 
  H35      1.0000 0.96210  0.60370  0.38880  Biso   1.000  H 
  H36      1.0000 0.46210  0.10370  0.38880  Biso   1.000  H 
  H37      1.0000 0.96210  0.39630  0.88880  Biso   1.000  H 
  H38      1.0000 0.46210  0.89630  0.88880  Biso   1.000  H 
  H39      1.0000 0.03790  0.39630  0.61120  Biso   1.000  H 
  H40      1.0000 0.53790  0.89630  0.61120  Biso   1.000  H 
  C49      1.0000 0.07586  0.54488  0.24163  Biso   1.000  C 
  C50      1.0000 0.57586  0.04488  0.24163  Biso   1.000  C 
  C51      1.0000 0.92414  0.54488  0.25837  Biso   1.000  C 
  C52      1.0000 0.42414  0.04488  0.25837  Biso   1.000  C 
  C53      1.0000 0.92414  0.45512  0.75837  Biso   1.000  C 
  C54      1.0000 0.42414  0.95512  0.75837  Biso   1.000  C 
  C55      1.0000 0.07586  0.45512  0.74163  Biso   1.000  C 
  C56      1.0000 0.57586  0.95512  0.74163  Biso   1.000  C 
  H41      1.0000 0.03310  0.50510  0.21260  Biso   1.000  H 
  H42      1.0000 0.53310  0.00510  0.21260  Biso   1.000  H 
  H43      1.0000 0.96690  0.50510  0.28740  Biso   1.000  H 
  H44      1.0000 0.46690  0.00510  0.28740  Biso   1.000  H 
  H45      1.0000 0.96690  0.49490  0.78740  Biso   1.000  H 
  H46      1.0000 0.46690  0.99490  0.78740  Biso   1.000  H 
  H47      1.0000 0.03310  0.49490  0.71260  Biso   1.000  H 
  H48      1.0000 0.53310  0.99490  0.71260  Biso   1.000  H 
  C57      1.0000 0.13481  0.54408  0.34481  Biso   1.000  C 
  C58      1.0000 0.63481  0.04408  0.34481  Biso   1.000  C 
  C59      1.0000 0.86519  0.54408  0.15519  Biso   1.000  C 
  C60      1.0000 0.36519  0.04408  0.15519  Biso   1.000  C 
  C61      1.0000 0.86519  0.45592  0.65519  Biso   1.000  C 
  C62      1.0000 0.36519  0.95592  0.65519  Biso   1.000  C 
  C63      1.0000 0.13481  0.45592  0.84481  Biso   1.000  C 
  C64      1.0000 0.63481  0.95592  0.84481  Biso   1.000  C 
  C65      1.0000 0.19738  0.60186  0.38292  Biso   1.000  C 
  C66      1.0000 0.69738  0.10186  0.38292  Biso   1.000  C 
  C67      1.0000 0.80262  0.60186  0.11708  Biso   1.000  C 
  C68      1.0000 0.30262  0.10186  0.11708  Biso   1.000  C 
  C69      1.0000 0.80262  0.39814  0.61708  Biso   1.000  C 
  C70      1.0000 0.30262  0.89814  0.61708  Biso   1.000  C 
  C71      1.0000 0.19738  0.39814  0.88292  Biso   1.000  C 
  C72      1.0000 0.69738  0.89814  0.88292  Biso   1.000  C 
  H49      1.0000 0.23930  0.60300  0.45290  Biso   1.000  H 
  H50      1.0000 0.73930  0.10300  0.45290  Biso   1.000  H 
  H51      1.0000 0.76070  0.60300  0.04710  Biso   1.000  H 
  H52      1.0000 0.26070  0.10300  0.04710  Biso   1.000  H 
  H53      1.0000 0.76070  0.39700  0.54710  Biso   1.000  H 
  H54      1.0000 0.26070  0.89700  0.54710  Biso   1.000  H 
  H55      1.0000 0.23930  0.39700  0.95290  Biso   1.000  H 
  H56      1.0000 0.73930  0.89700  0.95290  Biso   1.000  H 
  C73      1.0000 0.19774  0.65782  0.31730  Biso   1.000  C 
  C74      1.0000 0.69774  0.15782  0.31730  Biso   1.000  C 
  C75      1.0000 0.80226  0.65782  0.18270  Biso   1.000  C 
  C76      1.0000 0.30226  0.15782  0.18270  Biso   1.000  C 
  C77      1.0000 0.80226  0.34218  0.68270  Biso   1.000  C 
  C78      1.0000 0.30226  0.84218  0.68270  Biso   1.000  C 
  C79      1.0000 0.19774  0.34218  0.81730  Biso   1.000  C 
  C80      1.0000 0.69774  0.84218  0.81730  Biso   1.000  C 
  H57      1.0000 0.24110  0.69630  0.34370  Biso   1.000  H 
  H58      1.0000 0.74110  0.19630  0.34370  Biso   1.000  H 
  H59      1.0000 0.75890  0.69630  0.15630  Biso   1.000  H 
  H60      1.0000 0.25890  0.19630  0.15630  Biso   1.000  H 
  H61      1.0000 0.75890  0.30370  0.65630  Biso   1.000  H 
  H62      1.0000 0.25890  0.80370  0.65630  Biso   1.000  H 
  H63      1.0000 0.24110  0.30370  0.84370  Biso   1.000  H 
  H64      1.0000 0.74110  0.80370  0.84370  Biso   1.000  H 
  C81      1.0000 0.18492  0.16913  0.50452  Biso   1.000  C 
  C82      1.0000 0.68492  0.66913  0.50452  Biso   1.000  C 
  C83      1.0000 0.81508  0.16913  0.99548  Biso   1.000  C 
  C84      1.0000 0.31508  0.66913  0.99548  Biso   1.000  C 
  C85      1.0000 0.81508  0.83087  0.49548  Biso   1.000  C 
  C86      1.0000 0.31508  0.33087  0.49548  Biso   1.000  C 
  C87      1.0000 0.18492  0.83087  0.00452  Biso   1.000  C 
  C88      1.0000 0.68492  0.33087  0.00452  Biso   1.000  C 
  H65      1.0000 0.22610  0.21080  0.54120  Biso   1.000  H 
  H66      1.0000 0.72610  0.71080  0.54120  Biso   1.000  H 
  H67      1.0000 0.77390  0.21080  0.95880  Biso   1.000  H 
  H68      1.0000 0.27390  0.71080  0.95880  Biso   1.000  H 
  H69      1.0000 0.77390  0.78920  0.45880  Biso   1.000  H 
  H70      1.0000 0.27390  0.28920  0.45880  Biso   1.000  H 
  H71      1.0000 0.22610  0.78920  0.04120  Biso   1.000  H 
  H72      1.0000 0.72610  0.28920  0.04120  Biso   1.000  H 
  C89      1.0000 0.18243  0.11706  0.43466  Biso   1.000  C 
  C90      1.0000 0.68243  0.61706  0.43466  Biso   1.000  C 
  C91      1.0000 0.81757  0.11706  0.06534  Biso   1.000  C 
  C92      1.0000 0.31757  0.61706  0.06534  Biso   1.000  C 
  C93      1.0000 0.81757  0.88294  0.56534  Biso   1.000  C 
  C94      1.0000 0.31757  0.38294  0.56534  Biso   1.000  C 
  C95      1.0000 0.18243  0.88294  0.93466  Biso   1.000  C 
  C96      1.0000 0.68243  0.38294  0.93466  Biso   1.000  C 
  H73      1.0000 0.21940  0.12550  0.42110  Biso   1.000  H 
  H74      1.0000 0.71940  0.62550  0.42110  Biso   1.000  H 
  H75      1.0000 0.78060  0.12550  0.07890  Biso   1.000  H 
  H76      1.0000 0.28060  0.62550  0.07890  Biso   1.000  H 
  H77      1.0000 0.78060  0.87450  0.57890  Biso   1.000  H 
  H78      1.0000 0.28060  0.37450  0.57890  Biso   1.000  H 
  H79      1.0000 0.21940  0.87450  0.92110  Biso   1.000  H 
  H80      1.0000 0.71940  0.37450  0.92110  Biso   1.000  H 
  C97      1.0000 0.12506  0.05208  0.38428  Biso   1.000  C 
  C98      1.0000 0.62506  0.55208  0.38428  Biso   1.000  C 
  C99      1.0000 0.87494  0.05208  0.11572  Biso   1.000  C 
  C100     1.0000 0.37494  0.55208  0.11572  Biso   1.000  C 
  C101     1.0000 0.87494  0.94792  0.61572  Biso   1.000  C 
  C102     1.0000 0.37494  0.44792  0.61572  Biso   1.000  C 
  C103     1.0000 0.12506  0.94792  0.88428  Biso   1.000  C 
  C104     1.0000 0.62506  0.44792  0.88428  Biso   1.000  C 
  C105     1.0000 0.06953  0.04724  0.40277  Biso   1.000  C 
  C106     1.0000 0.56953  0.54724  0.40277  Biso   1.000  C 
  C107     1.0000 0.93047  0.04724  0.09723  Biso   1.000  C 
  C108     1.0000 0.43047  0.54724  0.09723  Biso   1.000  C 
  C109     1.0000 0.93047  0.95276  0.59723  Biso   1.000  C 
  C110     1.0000 0.43047  0.45276  0.59723  Biso   1.000  C 
  C111     1.0000 0.06953  0.95276  0.90277  Biso   1.000  C 
  C112     1.0000 0.56953  0.45276  0.90277  Biso   1.000  C 
  H81      1.0000 0.02870  0.00490  0.36870  Biso   1.000  H 
  H82      1.0000 0.52870  0.50490  0.36870  Biso   1.000  H 
  H83      1.0000 0.97130  0.00490  0.13130  Biso   1.000  H 
  H84      1.0000 0.47130  0.50490  0.13130  Biso   1.000  H 
  H85      1.0000 0.97130  0.99510  0.63130  Biso   1.000  H 
  H86      1.0000 0.47130  0.49510  0.63130  Biso   1.000  H 
  H87      1.0000 0.02870  0.99510  0.86870  Biso   1.000  H 
  H88      1.0000 0.52870  0.49510  0.86870  Biso   1.000  H 
  C113     1.0000 0.07394  0.10401  0.47052  Biso   1.000  C 
  C114     1.0000 0.57394  0.60401  0.47052  Biso   1.000  C 
  C115     1.0000 0.92606  0.10401  0.02948  Biso   1.000  C 
  C116     1.0000 0.42606  0.60401  0.02948  Biso   1.000  C 
  C117     1.0000 0.92606  0.89599  0.52948  Biso   1.000  C 
  C118     1.0000 0.42606  0.39599  0.52948  Biso   1.000  C 
  C119     1.0000 0.07394  0.89599  0.97052  Biso   1.000  C 
  C120     1.0000 0.57394  0.39599  0.97052  Biso   1.000  C 
  H89      1.0000 0.03460  0.10090  0.48050  Biso   1.000  H 
  H90      1.0000 0.53460  0.60090  0.48050  Biso   1.000  H 
  H91      1.0000 0.96540  0.10090  0.01950  Biso   1.000  H 
  H92      1.0000 0.46540  0.60090  0.01950  Biso   1.000  H 
  H93      1.0000 0.96540  0.89910  0.51950  Biso   1.000  H 
  H94      1.0000 0.46540  0.39910  0.51950  Biso   1.000  H 
  H95      1.0000 0.03460  0.89910  0.98050  Biso   1.000  H 
  H96      1.0000 0.53460  0.39910  0.98050  Biso   1.000  H 
  C121     1.0000 0.10397  0.83969  0.25672  Biso   1.000  C 
  C122     1.0000 0.60397  0.33969  0.25672  Biso   1.000  C 
  C123     1.0000 0.89603  0.83969  0.24328  Biso   1.000  C 
  C124     1.0000 0.39603  0.33969  0.24328  Biso   1.000  C 
  C125     1.0000 0.89603  0.16031  0.74328  Biso   1.000  C 
  C126     1.0000 0.39603  0.66031  0.74328  Biso   1.000  C 
  C127     1.0000 0.10397  0.16031  0.75672  Biso   1.000  C 
  C128     1.0000 0.60397  0.66031  0.75672  Biso   1.000  C 
  H97      1.0000 0.08420  0.78270  0.25240  Biso   1.000  H 
  H98      1.0000 0.58420  0.28270  0.25240  Biso   1.000  H 
  H99      1.0000 0.91580  0.78270  0.24760  Biso   1.000  H 
  H100     1.0000 0.41580  0.28270  0.24760  Biso   1.000  H 
  H101     1.0000 0.91580  0.21730  0.74760  Biso   1.000  H 
  H102     1.0000 0.41580  0.71730  0.74760  Biso   1.000  H 
  H103     1.0000 0.08420  0.21730  0.75240  Biso   1.000  H 
  H104     1.0000 0.58420  0.71730  0.75240  Biso   1.000  H 
  C129     1.0000 0.10103  0.90151  0.31476  Biso   1.000  C 
  C130     1.0000 0.60103  0.40151  0.31476  Biso   1.000  C 
  C131     1.0000 0.89897  0.90151  0.18524  Biso   1.000  C 
  C132     1.0000 0.39897  0.40151  0.18524  Biso   1.000  C 
  C133     1.0000 0.89897  0.09849  0.68524  Biso   1.000  C 
  C134     1.0000 0.39897  0.59849  0.68524  Biso   1.000  C 
  C135     1.0000 0.10103  0.09849  0.81476  Biso   1.000  C 
  C136     1.0000 0.60103  0.59849  0.81476  Biso   1.000  C 
  H105     1.0000 0.08210  0.88600  0.35180  Biso   1.000  H 
  H106     1.0000 0.58210  0.38600  0.35180  Biso   1.000  H 
  H107     1.0000 0.91790  0.88600  0.14820  Biso   1.000  H 
  H108     1.0000 0.41790  0.38600  0.14820  Biso   1.000  H 
  H109     1.0000 0.91790  0.11400  0.64820  Biso   1.000  H 
  H110     1.0000 0.41790  0.61400  0.64820  Biso   1.000  H 
  H111     1.0000 0.08210  0.11400  0.85180  Biso   1.000  H 
  H112     1.0000 0.58210  0.61400  0.85180  Biso   1.000  H 
  C137     1.0000 0.12610  0.98727  0.31878  Biso   1.000  C 
  C138     1.0000 0.62610  0.48727  0.31878  Biso   1.000  C 
  C139     1.0000 0.87390  0.98727  0.18122  Biso   1.000  C 
  C140     1.0000 0.37390  0.48727  0.18122  Biso   1.000  C 
  C141     1.0000 0.87390  0.01273  0.68122  Biso   1.000  C 
  C142     1.0000 0.37390  0.51273  0.68122  Biso   1.000  C 
  C143     1.0000 0.12610  0.01273  0.81878  Biso   1.000  C 
  C144     1.0000 0.62610  0.51273  0.81878  Biso   1.000  C 
  C145     1.0000 0.15314  0.00602  0.26246  Biso   1.000  C 
  C146     1.0000 0.65314  0.50602  0.26246  Biso   1.000  C 
  C147     1.0000 0.84686  0.00602  0.23754  Biso   1.000  C 
  C148     1.0000 0.34686  0.50602  0.23754  Biso   1.000  C 
  C149     1.0000 0.84686  0.99398  0.73754  Biso   1.000  C 
  C150     1.0000 0.34686  0.49398  0.73754  Biso   1.000  C 
  C151     1.0000 0.15314  0.99398  0.76246  Biso   1.000  C 
  C152     1.0000 0.65314  0.49398  0.76246  Biso   1.000  C 
  H113     1.0000 0.16860  0.06390  0.26040  Biso   1.000  H 
  H114     1.0000 0.66860  0.56390  0.26040  Biso   1.000  H 
  H115     1.0000 0.83140  0.06390  0.23960  Biso   1.000  H 
  H116     1.0000 0.33140  0.56390  0.23960  Biso   1.000  H 
  H117     1.0000 0.83140  0.93610  0.73960  Biso   1.000  H 
  H118     1.0000 0.33140  0.43610  0.73960  Biso   1.000  H 
  H119     1.0000 0.16860  0.93610  0.76040  Biso   1.000  H 
  H120     1.0000 0.66860  0.43610  0.76040  Biso   1.000  H 
  C153     1.0000 0.15720  0.93845  0.20910  Biso   1.000  C 
  C154     1.0000 0.65720  0.43845  0.20910  Biso   1.000  C 
  C155     1.0000 0.84280  0.93845  0.29090  Biso   1.000  C 
  C156     1.0000 0.34280  0.43845  0.29090  Biso   1.000  C 
  C157     1.0000 0.84280  0.06155  0.79090  Biso   1.000  C 
  C158     1.0000 0.34280  0.56155  0.79090  Biso   1.000  C 
  C159     1.0000 0.15720  0.06155  0.70910  Biso   1.000  C 
  C160     1.0000 0.65720  0.56155  0.70910  Biso   1.000  C 
  H121     1.0000 0.17780  0.95150  0.17340  Biso   1.000  H 
  H122     1.0000 0.67780  0.45150  0.17340  Biso   1.000  H 
  H123     1.0000 0.82220  0.95150  0.32660  Biso   1.000  H 
  H124     1.0000 0.32220  0.45150  0.32660  Biso   1.000  H 
  H125     1.0000 0.82220  0.04850  0.82660  Biso   1.000  H 
  H126     1.0000 0.32220  0.54850  0.82660  Biso   1.000  H 
  H127     1.0000 0.17780  0.04850  0.67340  Biso   1.000  H 
  H128     1.0000 0.67780  0.54850  0.67340  Biso   1.000  H 
