data_image0
_cell_length_a       19.2959
_cell_length_b       23.5415
_cell_length_c       12.2005
_cell_angle_alpha    90
_cell_angle_beta     107.136
_cell_angle_gamma    90

_symmetry_space_group_name_H-M    "P 1"
_symmetry_int_tables_number       1

loop_
  _symmetry_equiv_pos_as_xyz
  'x, y, z'

loop_
  _atom_site_label
  _atom_site_occupancy
  _atom_site_fract_x
  _atom_site_fract_y
  _atom_site_fract_z
  _atom_site_thermal_displace_type
  _atom_site_B_iso_or_equiv
  _atom_site_type_symbol
  Zn1      1.0000 0.21145  0.37249  0.43186  Biso   1.000  Zn
  Zn2      1.0000 0.78855  0.37249  0.56814  Biso   1.000  Zn
  Zn3      1.0000 0.71145  0.87249  0.43186  Biso   1.000  Zn
  Zn4      1.0000 0.28855  0.87249  0.56814  Biso   1.000  Zn
  Zn5      1.0000 0.78855  0.62751  0.56814  Biso   1.000  Zn
  Zn6      1.0000 0.21145  0.62751  0.43186  Biso   1.000  Zn
  Zn7      1.0000 0.28855  0.12751  0.56814  Biso   1.000  Zn
  Zn8      1.0000 0.71145  0.12751  0.43186  Biso   1.000  Zn
  O1       1.0000 0.30027  0.33254  0.51330  Biso   1.000  O 
  O2       1.0000 0.69973  0.33254  0.48670  Biso   1.000  O 
  O3       1.0000 0.80027  0.83254  0.51330  Biso   1.000  O 
  O4       1.0000 0.19973  0.83254  0.48670  Biso   1.000  O 
  O5       1.0000 0.69973  0.66746  0.48670  Biso   1.000  O 
  O6       1.0000 0.30027  0.66746  0.51330  Biso   1.000  O 
  O7       1.0000 0.19973  0.16746  0.48670  Biso   1.000  O 
  O8       1.0000 0.80027  0.16746  0.51330  Biso   1.000  O 
  O9       1.0000 0.34989  0.41526  0.53710  Biso   1.000  O 
  O10      1.0000 0.65011  0.41526  0.46290  Biso   1.000  O 
  O11      1.0000 0.84989  0.91526  0.53710  Biso   1.000  O 
  O12      1.0000 0.15011  0.91526  0.46290  Biso   1.000  O 
  O13      1.0000 0.65011  0.58474  0.46290  Biso   1.000  O 
  O14      1.0000 0.34989  0.58474  0.53710  Biso   1.000  O 
  O15      1.0000 0.15011  0.08474  0.46290  Biso   1.000  O 
  O16      1.0000 0.84989  0.08474  0.53710  Biso   1.000  O 
  O17      1.0000 0.66591  0.17079  0.28770  Biso   1.000  O 
  O18      1.0000 0.33409  0.17079  0.71230  Biso   1.000  O 
  O19      1.0000 0.16591  0.67079  0.28770  Biso   1.000  O 
  O20      1.0000 0.83409  0.67079  0.71230  Biso   1.000  O 
  O21      1.0000 0.33409  0.82921  0.71230  Biso   1.000  O 
  O22      1.0000 0.66591  0.82921  0.28770  Biso   1.000  O 
  O23      1.0000 0.83409  0.32921  0.71230  Biso   1.000  O 
  O24      1.0000 0.16591  0.32921  0.28770  Biso   1.000  O 
  O25      1.0000 0.75609  0.12481  0.25320  Biso   1.000  O 
  O26      1.0000 0.24391  0.12481  0.74680  Biso   1.000  O 
  O27      1.0000 0.25609  0.62481  0.25320  Biso   1.000  O 
  O28      1.0000 0.74391  0.62481  0.74680  Biso   1.000  O 
  O29      1.0000 0.24391  0.87519  0.74680  Biso   1.000  O 
  O30      1.0000 0.75609  0.87519  0.25320  Biso   1.000  O 
  O31      1.0000 0.74391  0.37519  0.74680  Biso   1.000  O 
  O32      1.0000 0.25609  0.37519  0.25320  Biso   1.000  O 
  N1       1.0000 0.63139  0.20530  0.67850  Biso   1.000  N 
  N2       1.0000 0.36861  0.20530  0.32150  Biso   1.000  N 
  N3       1.0000 0.13139  0.70530  0.67850  Biso   1.000  N 
  N4       1.0000 0.86861  0.70530  0.32150  Biso   1.000  N 
  N5       1.0000 0.36861  0.79470  0.32150  Biso   1.000  N 
  N6       1.0000 0.63139  0.79470  0.67850  Biso   1.000  N 
  N7       1.0000 0.86861  0.29470  0.32150  Biso   1.000  N 
  N8       1.0000 0.13139  0.29470  0.67850  Biso   1.000  N 
  N9       1.0000 0.65571  0.15782  0.54300  Biso   1.000  N 
  N10      1.0000 0.34429  0.15782  0.45700  Biso   1.000  N 
  N11      1.0000 0.15571  0.65782  0.54300  Biso   1.000  N 
  N12      1.0000 0.84429  0.65782  0.45700  Biso   1.000  N 
  N13      1.0000 0.34429  0.84218  0.45700  Biso   1.000  N 
  N14      1.0000 0.65571  0.84218  0.54300  Biso   1.000  N 
  N15      1.0000 0.84429  0.34218  0.45700  Biso   1.000  N 
  N16      1.0000 0.15571  0.34218  0.54300  Biso   1.000  N 
  N17      1.0000 0.17835  0.45244  0.41400  Biso   1.000  N 
  N18      1.0000 0.82165  0.45244  0.58600  Biso   1.000  N 
  N19      1.0000 0.67835  0.95244  0.41400  Biso   1.000  N 
  N20      1.0000 0.32165  0.95244  0.58600  Biso   1.000  N 
  N21      1.0000 0.82165  0.54756  0.58600  Biso   1.000  N 
  N22      1.0000 0.17835  0.54756  0.41400  Biso   1.000  N 
  N23      1.0000 0.32165  0.04756  0.58600  Biso   1.000  N 
  N24      1.0000 0.67835  0.04756  0.41400  Biso   1.000  N 
  N25      1.0000 0.59228  0.15693  0.66990  Biso   1.000  N 
  N26      1.0000 0.40772  0.15693  0.33010  Biso   1.000  N 
  N27      1.0000 0.09228  0.65693  0.66990  Biso   1.000  N 
  N28      1.0000 0.90772  0.65693  0.33010  Biso   1.000  N 
  N29      1.0000 0.40772  0.84307  0.33010  Biso   1.000  N 
  N30      1.0000 0.59228  0.84307  0.66990  Biso   1.000  N 
  N31      1.0000 0.90772  0.34307  0.33010  Biso   1.000  N 
  N32      1.0000 0.09228  0.34307  0.66990  Biso   1.000  N 
  C1       1.0000 0.35390  0.36390  0.55070  Biso   1.000  C 
  C2       1.0000 0.64610  0.36390  0.44930  Biso   1.000  C 
  C3       1.0000 0.85390  0.86390  0.55070  Biso   1.000  C 
  C4       1.0000 0.14610  0.86390  0.44930  Biso   1.000  C 
  C5       1.0000 0.64610  0.63610  0.44930  Biso   1.000  C 
  C6       1.0000 0.35390  0.63610  0.55070  Biso   1.000  C 
  C7       1.0000 0.14610  0.13610  0.44930  Biso   1.000  C 
  C8       1.0000 0.85390  0.13610  0.55070  Biso   1.000  C 
  C9       1.0000 0.42390  0.33536  0.61430  Biso   1.000  C 
  C10      1.0000 0.57610  0.33536  0.38570  Biso   1.000  C 
  C11      1.0000 0.92390  0.83536  0.61430  Biso   1.000  C 
  C12      1.0000 0.07610  0.83536  0.38570  Biso   1.000  C 
  C13      1.0000 0.57610  0.66464  0.38570  Biso   1.000  C 
  C14      1.0000 0.42390  0.66464  0.61430  Biso   1.000  C 
  C15      1.0000 0.07610  0.16464  0.38570  Biso   1.000  C 
  C16      1.0000 0.92390  0.16464  0.61430  Biso   1.000  C 
  C17      1.0000 0.42411  0.28099  0.64960  Biso   1.000  C 
  C18      1.0000 0.57589  0.28099  0.35040  Biso   1.000  C 
  C19      1.0000 0.92411  0.78099  0.64960  Biso   1.000  C 
  C20      1.0000 0.07589  0.78099  0.35040  Biso   1.000  C 
  C21      1.0000 0.57589  0.71901  0.35040  Biso   1.000  C 
  C22      1.0000 0.42411  0.71901  0.64960  Biso   1.000  C 
  C23      1.0000 0.07589  0.21901  0.35040  Biso   1.000  C 
  C24      1.0000 0.92411  0.21901  0.64960  Biso   1.000  C 
  H1       1.0000 0.37953  0.26154  0.63950  Biso   1.000  H 
  H2       1.0000 0.62047  0.26154  0.36050  Biso   1.000  H 
  H3       1.0000 0.87953  0.76154  0.63950  Biso   1.000  H 
  H4       1.0000 0.12047  0.76154  0.36050  Biso   1.000  H 
  H5       1.0000 0.62047  0.73846  0.36050  Biso   1.000  H 
  H6       1.0000 0.37953  0.73846  0.63950  Biso   1.000  H 
  H7       1.0000 0.12047  0.23846  0.36050  Biso   1.000  H 
  H8       1.0000 0.87953  0.23846  0.63950  Biso   1.000  H 
  C25      1.0000 0.48938  0.25331  0.70060  Biso   1.000  C 
  C26      1.0000 0.51062  0.25331  0.29940  Biso   1.000  C 
  C27      1.0000 0.98938  0.75331  0.70060  Biso   1.000  C 
  C28      1.0000 0.01062  0.75331  0.29940  Biso   1.000  C 
  C29      1.0000 0.51062  0.74669  0.29940  Biso   1.000  C 
  C30      1.0000 0.48938  0.74669  0.70060  Biso   1.000  C 
  C31      1.0000 0.01062  0.24669  0.29940  Biso   1.000  C 
  C32      1.0000 0.98938  0.24669  0.70060  Biso   1.000  C 
  H9       1.0000 0.48927  0.21513  0.72580  Biso   1.000  H 
  H10      1.0000 0.51073  0.21513  0.27420  Biso   1.000  H 
  H11      1.0000 0.98927  0.71513  0.72580  Biso   1.000  H 
  H12      1.0000 0.01073  0.71513  0.27420  Biso   1.000  H 
  H13      1.0000 0.51073  0.78487  0.27420  Biso   1.000  H 
  H14      1.0000 0.48927  0.78487  0.72580  Biso   1.000  H 
  H15      1.0000 0.01073  0.28487  0.27420  Biso   1.000  H 
  H16      1.0000 0.98927  0.28487  0.72580  Biso   1.000  H 
  C33      1.0000 0.55416  0.28126  0.71470  Biso   1.000  C 
  C34      1.0000 0.44584  0.28126  0.28530  Biso   1.000  C 
  C35      1.0000 0.05416  0.78126  0.71470  Biso   1.000  C 
  C36      1.0000 0.94584  0.78126  0.28530  Biso   1.000  C 
  C37      1.0000 0.44584  0.71874  0.28530  Biso   1.000  C 
  C38      1.0000 0.55416  0.71874  0.71470  Biso   1.000  C 
  C39      1.0000 0.94584  0.21874  0.28530  Biso   1.000  C 
  C40      1.0000 0.05416  0.21874  0.71470  Biso   1.000  C 
  C41      1.0000 0.62640  0.25032  0.76100  Biso   1.000  C 
  C42      1.0000 0.37360  0.25032  0.23900  Biso   1.000  C 
  C43      1.0000 0.12640  0.75032  0.76100  Biso   1.000  C 
  C44      1.0000 0.87360  0.75032  0.23900  Biso   1.000  C 
  C45      1.0000 0.37360  0.74968  0.23900  Biso   1.000  C 
  C46      1.0000 0.62640  0.74968  0.76100  Biso   1.000  C 
  C47      1.0000 0.87360  0.24968  0.23900  Biso   1.000  C 
  C48      1.0000 0.12640  0.24968  0.76100  Biso   1.000  C 
  H17      1.0000 0.66539  0.27858  0.76258  Biso   1.000  H 
  H18      1.0000 0.33461  0.27858  0.23742  Biso   1.000  H 
  H19      1.0000 0.16539  0.77858  0.76258  Biso   1.000  H 
  H20      1.0000 0.83461  0.77858  0.23742  Biso   1.000  H 
  H21      1.0000 0.33461  0.72142  0.23742  Biso   1.000  H 
  H22      1.0000 0.66539  0.72142  0.76258  Biso   1.000  H 
  H23      1.0000 0.83461  0.22142  0.23742  Biso   1.000  H 
  H24      1.0000 0.16539  0.22142  0.76258  Biso   1.000  H 
  C49      1.0000 0.66884  0.20603  0.60350  Biso   1.000  C 
  C50      1.0000 0.33116  0.20603  0.39650  Biso   1.000  C 
  C51      1.0000 0.16884  0.70603  0.60350  Biso   1.000  C 
  C52      1.0000 0.83116  0.70603  0.39650  Biso   1.000  C 
  C53      1.0000 0.33116  0.79397  0.39650  Biso   1.000  C 
  C54      1.0000 0.66884  0.79397  0.60350  Biso   1.000  C 
  C55      1.0000 0.83116  0.29397  0.39650  Biso   1.000  C 
  C56      1.0000 0.16884  0.29397  0.60350  Biso   1.000  C 
  H25      1.0000 0.69984  0.23581  0.59419  Biso   1.000  H 
  H26      1.0000 0.30016  0.23581  0.40581  Biso   1.000  H 
  H27      1.0000 0.19984  0.73581  0.59419  Biso   1.000  H 
  H28      1.0000 0.80016  0.73581  0.40581  Biso   1.000  H 
  H29      1.0000 0.30016  0.76419  0.40581  Biso   1.000  H 
  H30      1.0000 0.69984  0.76419  0.59419  Biso   1.000  H 
  H31      1.0000 0.80016  0.26419  0.40581  Biso   1.000  H 
  H32      1.0000 0.19984  0.26419  0.59419  Biso   1.000  H 
  C57      1.0000 0.60890  0.12956  0.58590  Biso   1.000  C 
  C58      1.0000 0.39110  0.12956  0.41410  Biso   1.000  C 
  C59      1.0000 0.10890  0.62956  0.58590  Biso   1.000  C 
  C60      1.0000 0.89110  0.62956  0.41410  Biso   1.000  C 
  C61      1.0000 0.39110  0.87044  0.41410  Biso   1.000  C 
  C62      1.0000 0.60890  0.87044  0.58590  Biso   1.000  C 
  C63      1.0000 0.89110  0.37044  0.41410  Biso   1.000  C 
  C64      1.0000 0.10890  0.37044  0.58590  Biso   1.000  C 
  H33      1.0000 0.58962  0.09337  0.55863  Biso   1.000  H 
  H34      1.0000 0.41038  0.09337  0.44137  Biso   1.000  H 
  H35      1.0000 0.08962  0.59337  0.55863  Biso   1.000  H 
  H36      1.0000 0.91038  0.59337  0.44137  Biso   1.000  H 
  H37      1.0000 0.41038  0.90663  0.44137  Biso   1.000  H 
  H38      1.0000 0.58962  0.90663  0.55863  Biso   1.000  H 
  H39      1.0000 0.91038  0.40663  0.44137  Biso   1.000  H 
  H40      1.0000 0.08962  0.40663  0.55863  Biso   1.000  H 
  C65      1.0000 0.64324  0.22562  0.88110  Biso   1.000  C 
  C66      1.0000 0.35676  0.22562  0.11890  Biso   1.000  C 
  C67      1.0000 0.14324  0.72562  0.88110  Biso   1.000  C 
  C68      1.0000 0.85676  0.72562  0.11890  Biso   1.000  C 
  C69      1.0000 0.35676  0.77438  0.11890  Biso   1.000  C 
  C70      1.0000 0.64324  0.77438  0.88110  Biso   1.000  C 
  C71      1.0000 0.85676  0.27438  0.11890  Biso   1.000  C 
  C72      1.0000 0.14324  0.27438  0.88110  Biso   1.000  C 
  C73      1.0000 0.70075  0.18838  0.91800  Biso   1.000  C 
  C74      1.0000 0.29925  0.18838  0.08200  Biso   1.000  C 
  C75      1.0000 0.20075  0.68838  0.91800  Biso   1.000  C 
  C76      1.0000 0.79925  0.68838  0.08200  Biso   1.000  C 
  C77      1.0000 0.29925  0.81162  0.08200  Biso   1.000  C 
  C78      1.0000 0.70075  0.81162  0.91800  Biso   1.000  C 
  C79      1.0000 0.79925  0.31162  0.08200  Biso   1.000  C 
  C80      1.0000 0.20075  0.31162  0.91800  Biso   1.000  C 
  H41      1.0000 0.72773  0.17781  0.86743  Biso   1.000  H 
  H42      1.0000 0.27227  0.17781  0.13257  Biso   1.000  H 
  H43      1.0000 0.22773  0.67781  0.86743  Biso   1.000  H 
  H44      1.0000 0.77227  0.67781  0.13257  Biso   1.000  H 
  H45      1.0000 0.27227  0.82219  0.13257  Biso   1.000  H 
  H46      1.0000 0.72773  0.82219  0.86743  Biso   1.000  H 
  H47      1.0000 0.77227  0.32219  0.13257  Biso   1.000  H 
  H48      1.0000 0.22773  0.32219  0.86743  Biso   1.000  H 
  C81      1.0000 0.71940  0.16631  0.02820  Biso   1.000  C 
  C82      1.0000 0.28060  0.16631  0.97180  Biso   1.000  C 
  C83      1.0000 0.21940  0.66631  0.02820  Biso   1.000  C 
  C84      1.0000 0.78060  0.66631  0.97180  Biso   1.000  C 
  C85      1.0000 0.28060  0.83369  0.97180  Biso   1.000  C 
  C86      1.0000 0.71940  0.83369  0.02820  Biso   1.000  C 
  C87      1.0000 0.78060  0.33369  0.97180  Biso   1.000  C 
  C88      1.0000 0.21940  0.33369  0.02820  Biso   1.000  C 
  H49      1.0000 0.75872  0.14039  0.05208  Biso   1.000  H 
  H50      1.0000 0.24128  0.14039  0.94792  Biso   1.000  H 
  H51      1.0000 0.25872  0.64039  0.05208  Biso   1.000  H 
  H52      1.0000 0.74128  0.64039  0.94792  Biso   1.000  H 
  H53      1.0000 0.24128  0.85961  0.94792  Biso   1.000  H 
  H54      1.0000 0.75872  0.85961  0.05208  Biso   1.000  H 
  H55      1.0000 0.74128  0.35961  0.94792  Biso   1.000  H 
  H56      1.0000 0.25872  0.35961  0.05208  Biso   1.000  H 
  C89      1.0000 0.68166  0.18150  0.10340  Biso   1.000  C 
  C90      1.0000 0.31834  0.18150  0.89660  Biso   1.000  C 
  C91      1.0000 0.18166  0.68150  0.10340  Biso   1.000  C 
  C92      1.0000 0.81834  0.68150  0.89660  Biso   1.000  C 
  C93      1.0000 0.31834  0.81850  0.89660  Biso   1.000  C 
  C94      1.0000 0.68166  0.81850  0.10340  Biso   1.000  C 
  C95      1.0000 0.81834  0.31850  0.89660  Biso   1.000  C 
  C96      1.0000 0.18166  0.31850  0.10340  Biso   1.000  C 
  C97      1.0000 0.70290  0.15729  0.22230  Biso   1.000  C 
  C98      1.0000 0.29710  0.15729  0.77770  Biso   1.000  C 
  C99      1.0000 0.20290  0.65729  0.22230  Biso   1.000  C 
  C100     1.0000 0.79710  0.65729  0.77770  Biso   1.000  C 
  C101     1.0000 0.29710  0.84271  0.77770  Biso   1.000  C 
  C102     1.0000 0.70290  0.84271  0.22230  Biso   1.000  C 
  C103     1.0000 0.79710  0.34271  0.77770  Biso   1.000  C 
  C104     1.0000 0.20290  0.34271  0.22230  Biso   1.000  C 
  C105     1.0000 0.62571  0.21895  0.06760  Biso   1.000  C 
  C106     1.0000 0.37429  0.21895  0.93240  Biso   1.000  C 
  C107     1.0000 0.12571  0.71895  0.06760  Biso   1.000  C 
  C108     1.0000 0.87429  0.71895  0.93240  Biso   1.000  C 
  C109     1.0000 0.37429  0.78105  0.93240  Biso   1.000  C 
  C110     1.0000 0.62571  0.78105  0.06760  Biso   1.000  C 
  C111     1.0000 0.87429  0.28105  0.93240  Biso   1.000  C 
  C112     1.0000 0.12571  0.28105  0.06760  Biso   1.000  C 
  H57      1.0000 0.59936  0.23034  0.11850  Biso   1.000  H 
  H58      1.0000 0.40064  0.23034  0.88150  Biso   1.000  H 
  H59      1.0000 0.09936  0.73034  0.11850  Biso   1.000  H 
  H60      1.0000 0.90064  0.73034  0.88150  Biso   1.000  H 
  H61      1.0000 0.40064  0.76966  0.88150  Biso   1.000  H 
  H62      1.0000 0.59936  0.76966  0.11850  Biso   1.000  H 
  H63      1.0000 0.90064  0.26966  0.88150  Biso   1.000  H 
  H64      1.0000 0.09936  0.26966  0.11850  Biso   1.000  H 
  C113     1.0000 0.60695  0.24068  0.95580  Biso   1.000  C 
  C114     1.0000 0.39305  0.24068  0.04420  Biso   1.000  C 
  C115     1.0000 0.10695  0.74068  0.95580  Biso   1.000  C 
  C116     1.0000 0.89305  0.74068  0.04420  Biso   1.000  C 
  C117     1.0000 0.39305  0.75932  0.04420  Biso   1.000  C 
  C118     1.0000 0.60695  0.75932  0.95580  Biso   1.000  C 
  C119     1.0000 0.89305  0.25932  0.04420  Biso   1.000  C 
  C120     1.0000 0.10695  0.25932  0.95580  Biso   1.000  C 
  H65      1.0000 0.56772  0.26667  0.93194  Biso   1.000  H 
  H66      1.0000 0.43228  0.26667  0.06806  Biso   1.000  H 
  H67      1.0000 0.06772  0.76667  0.93194  Biso   1.000  H 
  H68      1.0000 0.93228  0.76667  0.06806  Biso   1.000  H 
  H69      1.0000 0.43228  0.73333  0.06806  Biso   1.000  H 
  H70      1.0000 0.56772  0.73333  0.93194  Biso   1.000  H 
  H71      1.0000 0.93228  0.23333  0.06806  Biso   1.000  H 
  H72      1.0000 0.06772  0.23333  0.93194  Biso   1.000  H 
  C121     1.0000 0.55410  0.33706  0.68180  Biso   1.000  C 
  C122     1.0000 0.44590  0.33706  0.31820  Biso   1.000  C 
  C123     1.0000 0.05410  0.83706  0.68180  Biso   1.000  C 
  C124     1.0000 0.94590  0.83706  0.31820  Biso   1.000  C 
  C125     1.0000 0.44590  0.66294  0.31820  Biso   1.000  C 
  C126     1.0000 0.55410  0.66294  0.68180  Biso   1.000  C 
  C127     1.0000 0.94590  0.16294  0.31820  Biso   1.000  C 
  C128     1.0000 0.05410  0.16294  0.68180  Biso   1.000  C 
  H73      1.0000 0.59846  0.35694  0.69281  Biso   1.000  H 
  H74      1.0000 0.40154  0.35694  0.30719  Biso   1.000  H 
  H75      1.0000 0.09846  0.85694  0.69281  Biso   1.000  H 
  H76      1.0000 0.90154  0.85694  0.30719  Biso   1.000  H 
  H77      1.0000 0.40154  0.64306  0.30719  Biso   1.000  H 
  H78      1.0000 0.59846  0.64306  0.69281  Biso   1.000  H 
  H79      1.0000 0.90154  0.14306  0.30719  Biso   1.000  H 
  H80      1.0000 0.09846  0.14306  0.69281  Biso   1.000  H 
  C129     1.0000 0.48890  0.36380  0.63280  Biso   1.000  C 
  C130     1.0000 0.51110  0.36380  0.36720  Biso   1.000  C 
  C131     1.0000 0.98890  0.86380  0.63280  Biso   1.000  C 
  C132     1.0000 0.01110  0.86380  0.36720  Biso   1.000  C 
  C133     1.0000 0.51110  0.63620  0.36720  Biso   1.000  C 
  C134     1.0000 0.48890  0.63620  0.63280  Biso   1.000  C 
  C135     1.0000 0.01110  0.13620  0.36720  Biso   1.000  C 
  C136     1.0000 0.98890  0.13620  0.63280  Biso   1.000  C 
  H81      1.0000 0.48859  0.40259  0.61119  Biso   1.000  H 
  H82      1.0000 0.51141  0.40259  0.38881  Biso   1.000  H 
  H83      1.0000 0.98859  0.90259  0.61119  Biso   1.000  H 
  H84      1.0000 0.01141  0.90259  0.38881  Biso   1.000  H 
  H85      1.0000 0.51141  0.59741  0.38881  Biso   1.000  H 
  H86      1.0000 0.48859  0.59741  0.61119  Biso   1.000  H 
  H87      1.0000 0.01141  0.09741  0.38881  Biso   1.000  H 
  H88      1.0000 0.98859  0.09741  0.61119  Biso   1.000  H 
  C137     1.0000 0.21640  0.50000  0.44100  Biso   1.000  C 
  C138     1.0000 0.78360  0.50000  0.55900  Biso   1.000  C 
  C139     1.0000 0.71640  0.00000  0.44100  Biso   1.000  C 
  C140     1.0000 0.28360  0.00000  0.55900  Biso   1.000  C 
  H89      1.0000 0.26721  0.50000  0.47710  Biso   1.000  H 
  H90      1.0000 0.73279  0.50000  0.52290  Biso   1.000  H 
  H91      1.0000 0.76721  0.00000  0.47710  Biso   1.000  H 
  H92      1.0000 0.23279  0.00000  0.52290  Biso   1.000  H 
  C141     1.0000 0.10720  0.46996  0.36340  Biso   1.000  C 
  C142     1.0000 0.89280  0.46996  0.63660  Biso   1.000  C 
  C143     1.0000 0.60720  0.96996  0.36340  Biso   1.000  C 
  C144     1.0000 0.39280  0.96996  0.63660  Biso   1.000  C 
  C145     1.0000 0.89280  0.53004  0.63660  Biso   1.000  C 
  C146     1.0000 0.10720  0.53004  0.36340  Biso   1.000  C 
  C147     1.0000 0.39280  0.03004  0.63660  Biso   1.000  C 
  C148     1.0000 0.60720  0.03004  0.36340  Biso   1.000  C 
  C149     1.0000 0.04301  0.43989  0.31740  Biso   1.000  C 
  C150     1.0000 0.95699  0.43989  0.68260  Biso   1.000  C 
  C151     1.0000 0.54301  0.93989  0.31740  Biso   1.000  C 
  C152     1.0000 0.45699  0.93989  0.68260  Biso   1.000  C 
  C153     1.0000 0.95699  0.56011  0.68260  Biso   1.000  C 
  C154     1.0000 0.04301  0.56011  0.31740  Biso   1.000  C 
  C155     1.0000 0.45699  0.06011  0.68260  Biso   1.000  C 
  C156     1.0000 0.54301  0.06011  0.31740  Biso   1.000  C 
  H93      1.0000 0.04266  0.39954  0.31676  Biso   1.000  H 
  H94      1.0000 0.95734  0.39954  0.68324  Biso   1.000  H 
  H95      1.0000 0.54266  0.89954  0.31676  Biso   1.000  H 
  H96      1.0000 0.45734  0.89954  0.68324  Biso   1.000  H 
  H97      1.0000 0.95734  0.60046  0.68324  Biso   1.000  H 
  H98      1.0000 0.04266  0.60046  0.31676  Biso   1.000  H 
  H99      1.0000 0.45734  0.10046  0.68324  Biso   1.000  H 
  H100     1.0000 0.54266  0.10046  0.31676  Biso   1.000  H 
  C157     1.0000 0.98037  0.47023  0.27320  Biso   1.000  C 
  C158     1.0000 0.01963  0.47023  0.72680  Biso   1.000  C 
  C159     1.0000 0.48037  0.97023  0.27320  Biso   1.000  C 
  C160     1.0000 0.51963  0.97023  0.72680  Biso   1.000  C 
  C161     1.0000 0.01963  0.52977  0.72680  Biso   1.000  C 
  C162     1.0000 0.98037  0.52977  0.27320  Biso   1.000  C 
  C163     1.0000 0.51963  0.02977  0.72680  Biso   1.000  C 
  C164     1.0000 0.48037  0.02977  0.27320  Biso   1.000  C 
  H101     1.0000 0.93599  0.45048  0.24190  Biso   1.000  H 
  H102     1.0000 0.06401  0.45048  0.75810  Biso   1.000  H 
  H103     1.0000 0.43599  0.95048  0.24190  Biso   1.000  H 
  H104     1.0000 0.56401  0.95048  0.75810  Biso   1.000  H 
  H105     1.0000 0.06401  0.54952  0.75810  Biso   1.000  H 
  H106     1.0000 0.93599  0.54952  0.24190  Biso   1.000  H 
  H107     1.0000 0.56401  0.04952  0.75810  Biso   1.000  H 
  H108     1.0000 0.43599  0.04952  0.24190  Biso   1.000  H 
