data_image0
_cell_length_a       13.319
_cell_length_b       9.111
_cell_length_c       18.559
_cell_angle_alpha    90
_cell_angle_beta     122.668
_cell_angle_gamma    90

_symmetry_space_group_name_H-M    "P 1"
_symmetry_int_tables_number       1

loop_
  _symmetry_equiv_pos_as_xyz
  'x, y, z'

loop_
  _atom_site_label
  _atom_site_occupancy
  _atom_site_fract_x
  _atom_site_fract_y
  _atom_site_fract_z
  _atom_site_thermal_displace_type
  _atom_site_B_iso_or_equiv
  _atom_site_type_symbol
  Fe1      1.0000 0.99567  0.61361  0.09257  Biso   1.000  Fe
  N1       1.0000 0.85520  0.48740  0.04850  Biso   1.000  N 
  C1       1.0000 0.75500  0.49210  0.96510  Biso   1.000  C 
  C2       1.0000 0.66490  0.40110  0.96170  Biso   1.000  C 
  N2       1.0000 0.55190  0.36300  0.90430  Biso   1.000  N 
  H1       1.0000 0.50109  0.39278  0.84178  Biso   1.000  H 
  S1       1.0000 0.51409  0.25900  0.95650  Biso   1.000  S 
  C3       1.0000 0.71080  0.34500  0.04400  Biso   1.000  C 
  N3       1.0000 0.63530  0.26330  0.05210  Biso   1.000  N 
  C4       1.0000 0.83260  0.39640  0.09680  Biso   1.000  C 
  N4       1.0000 0.90360  0.36090  0.17900  Biso   1.000  N 
  C5       1.0000 0.01320  0.41470  0.22580  Biso   1.000  C 
  C6       1.0000 0.09480  0.37700  0.31610  Biso   1.000  C 
  C7       1.0000 0.19910  0.45470  0.34290  Biso   1.000  C 
  N5       1.0000 0.28520  0.43820  0.42580  Biso   1.000  N 
  H2       1.0000 0.36700  0.48591  0.45778  Biso   1.000  H 
  S2       1.0000 0.23158  0.32730  0.46361  Biso   1.000  S 
  N6       1.0000 0.09780  0.29510  0.37590  Biso   1.000  N 
  Fe2      1.0000 0.00433  0.11361  0.40743  Biso   1.000  Fe
  N7       1.0000 0.93210  0.01420  0.29710  Biso   1.000  N 
  C8       1.0000 0.81670  0.03770  0.22850  Biso   1.000  C 
  C9       1.0000 0.80090  0.95470  0.15710  Biso   1.000  C 
  N8       1.0000 0.71480  0.93820  0.07420  Biso   1.000  N 
  H3       1.0000 0.63300  0.98591  0.04222  Biso   1.000  H 
  S3       1.0000 0.76842  0.82730  0.03639  Biso   1.000  S 
  C10      1.0000 0.90520  0.87700  0.18390  Biso   1.000  C 
  N9       1.0000 0.90220  0.79510  0.12410  Biso   1.000  N 
  C11      1.0000 0.98680  0.91470  0.27420  Biso   1.000  C 
  N10      1.0000 0.09640  0.86090  0.32100  Biso   1.000  N 
  C12      1.0000 0.16740  0.89640  0.40320  Biso   1.000  C 
  C13      1.0000 0.28920  0.84500  0.45600  Biso   1.000  C 
  N11      1.0000 0.36470  0.76330  0.44790  Biso   1.000  N 
  S4       1.0000 0.48591  0.75900  0.54350  Biso   1.000  S 
  C14      1.0000 0.33510  0.90110  0.53830  Biso   1.000  C 
  N12      1.0000 0.44810  0.86300  0.59570  Biso   1.000  N 
  H4       1.0000 0.49891  0.89278  0.65822  Biso   1.000  H 
  C15      1.0000 0.24500  0.99210  0.53490  Biso   1.000  C 
  N13      1.0000 0.14480  0.98740  0.45150  Biso   1.000  N 
  N14      1.0000 0.25940  0.06660  0.60010  Biso   1.000  N 
  C16      1.0000 0.18140  0.16050  0.59460  Biso   1.000  C 
  N15      1.0000 0.06900  0.19470  0.52220  Biso   1.000  N 
  C17      1.0000 0.01780  0.30060  0.54270  Biso   1.000  C 
  C18      1.0000 0.09990  0.34140  0.63230  Biso   1.000  C 
  N16      1.0000 0.10320  0.43810  0.68670  Biso   1.000  N 
  H5       1.0000 0.03940  0.51151  0.67637  Biso   1.000  H 
  S5       1.0000 0.23488  0.41190  0.77519  Biso   1.000  S 
  N17      1.0000 0.28620  0.27780  0.74520  Biso   1.000  N 
  C19      1.0000 0.19980  0.25380  0.66360  Biso   1.000  C 
  H6       1.0000 0.36554  0.22497  0.78054  Biso   1.000  H 
  N18      1.0000 0.90970  0.36150  0.49480  Biso   1.000  N 
  C20      1.0000 0.83580  0.31740  0.41520  Biso   1.000  C 
  N19      1.0000 0.85490  0.21660  0.36950  Biso   1.000  N 
  C21      1.0000 0.75020  0.20050  0.28900  Biso   1.000  C 
  N20      1.0000 0.73220  0.11760  0.22530  Biso   1.000  N 
  C22      1.0000 0.66130  0.29540  0.28550  Biso   1.000  C 
  N21      1.0000 0.54680  0.32860  0.22890  Biso   1.000  N 
  H7       1.0000 0.49183  0.28553  0.16964  Biso   1.000  H 
  S6       1.0000 0.51553  0.45400  0.27670  Biso   1.000  S 
  C23      1.0000 0.71260  0.37130  0.36230  Biso   1.000  C 
  N22      1.0000 0.64360  0.46620  0.36860  Biso   1.000  N 
  H8       1.0000 0.66470  0.53221  0.41895  Biso   1.000  H 
  C24      1.0000 0.18330  0.53770  0.27150  Biso   1.000  C 
  N23      1.0000 0.06790  0.51420  0.20290  Biso   1.000  N 
  N24      1.0000 0.26780  0.61760  0.27470  Biso   1.000  N 
  C25      1.0000 0.24980  0.70050  0.21100  Biso   1.000  C 
  C26      1.0000 0.33870  0.79540  0.21450  Biso   1.000  C 
  C27      1.0000 0.28740  0.87130  0.13770  Biso   1.000  C 
  C28      1.0000 0.16420  0.81740  0.08480  Biso   1.000  C 
  N25      1.0000 0.14510  0.71660  0.13050  Biso   1.000  N 
  N26      1.0000 0.09030  0.86150  0.00520  Biso   1.000  N 
  C29      1.0000 0.98220  0.80060  0.95730  Biso   1.000  C 
  C30      1.0000 0.90010  0.84140  0.86770  Biso   1.000  C 
  N27      1.0000 0.89680  0.93810  0.81330  Biso   1.000  N 
  S7       1.0000 0.76512  0.91190  0.72481  Biso   1.000  S 
  N28      1.0000 0.71380  0.77780  0.75480  Biso   1.000  N 
  H9       1.0000 0.63446  0.72497  0.71946  Biso   1.000  H 
  C31      1.0000 0.80020  0.75380  0.83640  Biso   1.000  C 
  C32      1.0000 0.81860  0.66050  0.90540  Biso   1.000  C 
  N29      1.0000 0.93100  0.69470  0.97780  Biso   1.000  N 
  N30      1.0000 0.74060  0.56660  0.89990  Biso   1.000  N 
  H10      1.0000 0.96060  0.01151  0.82363  Biso   1.000  H 
  N31      1.0000 0.35640  0.96620  0.13140  Biso   1.000  N 
  S8       1.0000 0.48447  0.95400  0.22330  Biso   1.000  S 
  N32      1.0000 0.45320  0.82860  0.27110  Biso   1.000  N 
  H11      1.0000 0.50817  0.78553  0.33036  Biso   1.000  H 
  H12      1.0000 0.33530  0.03221  0.08106  Biso   1.000  H 
