data_image0
_cell_length_a       12.2419
_cell_length_b       13.2271
_cell_length_c       10.2621
_cell_angle_alpha    90
_cell_angle_beta     90
_cell_angle_gamma    90

_symmetry_space_group_name_H-M    "P 1"
_symmetry_int_tables_number       1

loop_
  _symmetry_equiv_pos_as_xyz
  'x, y, z'

loop_
  _atom_site_label
  _atom_site_occupancy
  _atom_site_fract_x
  _atom_site_fract_y
  _atom_site_fract_z
  _atom_site_thermal_displace_type
  _atom_site_B_iso_or_equiv
  _atom_site_type_symbol
  C1       1.0000 0.00000  0.21860  0.49402  Biso   1.000  C 
  O1       1.0000 0.00000  0.15649  0.40027  Biso   1.000  O 
  In1      1.0000 0.00000  0.28513  0.25000  Biso   1.000  In
  O2       1.0000 0.00000  0.15649  0.09973  Biso   1.000  O 
  C2       1.0000 0.00000  0.21860  0.00598  Biso   1.000  C 
  O3       1.0000 0.00000  0.31352  0.02744  Biso   1.000  O 
  C3       1.0000 0.00000  0.18348  0.86951  Biso   1.000  C 
  C4       1.0000 0.00000  0.08662  0.81914  Biso   1.000  C 
  H1       1.0000 0.00000  0.02710  0.87090  Biso   1.000  H 
  C5       1.0000 0.00000  0.08662  0.68086  Biso   1.000  C 
  H2       1.0000 0.00000  0.02710  0.62910  Biso   1.000  H 
  C6       1.0000 0.00000  0.18348  0.63049  Biso   1.000  C 
  S1       1.0000 0.00000  0.27356  0.75000  Biso   1.000  S 
  O4       1.0000 0.00000  0.31352  0.47256  Biso   1.000  O 
  Cl1      1.0000 0.19987  0.29561  0.25000  Biso   1.000  Cl
  Cl2      1.0000 0.80013  0.29561  0.25000  Biso   1.000  Cl
  Cl3      1.0000 0.00000  0.47997  0.25000  Biso   1.000  Cl
