data_image0
_cell_length_a       16.2945
_cell_length_b       16.2945
_cell_length_c       17.4321
_cell_angle_alpha    90
_cell_angle_beta     90
_cell_angle_gamma    90

_symmetry_space_group_name_H-M    "P 1"
_symmetry_int_tables_number       1

loop_
  _symmetry_equiv_pos_as_xyz
  'x, y, z'

loop_
  _atom_site_label
  _atom_site_occupancy
  _atom_site_fract_x
  _atom_site_fract_y
  _atom_site_fract_z
  _atom_site_thermal_displace_type
  _atom_site_B_iso_or_equiv
  _atom_site_type_symbol
  Mn1      1.0000 0.23920  0.77370  0.21873  Biso   1.000  Mn
  N1       1.0000 0.30567  0.65468  0.23319  Biso   1.000  N 
  C1       1.0000 0.33638  0.59362  0.24842  Biso   1.000  C 
  N2       1.0000 0.37910  0.52915  0.26530  Biso   1.000  N 
  C2       1.0000 0.34632  0.45822  0.27754  Biso   1.000  C 
  N3       1.0000 0.32503  0.39328  0.29042  Biso   1.000  N 
  Mn2      1.0000 0.26080  0.27370  0.28127  Biso   1.000  Mn
  N4       1.0000 0.27490  0.28080  0.15485  Biso   1.000  N 
  C3       1.0000 0.29630  0.27520  0.09100  Biso   1.000  C 
  N5       1.0000 0.32390  0.27550  0.02120  Biso   1.000  N 
  C4       1.0000 0.27750  0.26160  0.96250  Biso   1.000  C 
  N6       1.0000 0.23790  0.25430  0.90619  Biso   1.000  N 
  Mn3      1.0000 0.22630  0.23920  0.78127  Biso   1.000  Mn
  N7       1.0000 0.21920  0.22510  0.65485  Biso   1.000  N 
  C5       1.0000 0.22480  0.20370  0.59100  Biso   1.000  C 
  N8       1.0000 0.22450  0.17610  0.52120  Biso   1.000  N 
  C6       1.0000 0.23840  0.22250  0.46250  Biso   1.000  C 
  N9       1.0000 0.24570  0.26210  0.40619  Biso   1.000  N 
  N10      1.0000 0.16258  0.36072  0.77065  Biso   1.000  N 
  C7       1.0000 0.14790  0.42520  0.74850  Biso   1.000  C 
  N11      1.0000 0.12210  0.49480  0.72180  Biso   1.000  N 
  C8       1.0000 0.16920  0.55910  0.71970  Biso   1.000  C 
  N12      1.0000 0.20549  0.62006  0.71184  Biso   1.000  N 
  Mn4      1.0000 0.27370  0.73920  0.71873  Biso   1.000  Mn
  N13      1.0000 0.15468  0.80567  0.73319  Biso   1.000  N 
  C9       1.0000 0.09362  0.83638  0.74842  Biso   1.000  C 
  N14      1.0000 0.02915  0.87910  0.76530  Biso   1.000  N 
  C10      1.0000 0.95822  0.84632  0.77754  Biso   1.000  C 
  N15      1.0000 0.89328  0.82503  0.79042  Biso   1.000  N 
  Mn5      1.0000 0.77370  0.76080  0.78127  Biso   1.000  Mn
  N16      1.0000 0.78080  0.77490  0.65485  Biso   1.000  N 
  C11      1.0000 0.77520  0.79630  0.59100  Biso   1.000  C 
  N17      1.0000 0.77550  0.82390  0.52120  Biso   1.000  N 
  C12      1.0000 0.76160  0.77750  0.46250  Biso   1.000  C 
  N18      1.0000 0.75430  0.73790  0.40619  Biso   1.000  N 
  Mn6      1.0000 0.73920  0.72630  0.28127  Biso   1.000  Mn
  N19      1.0000 0.72510  0.71920  0.15485  Biso   1.000  N 
  C13      1.0000 0.70370  0.72480  0.09100  Biso   1.000  C 
  N20      1.0000 0.67610  0.72450  0.02120  Biso   1.000  N 
  C14      1.0000 0.72250  0.73840  0.96250  Biso   1.000  C 
  N21      1.0000 0.76210  0.74570  0.90619  Biso   1.000  N 
  N22      1.0000 0.67497  0.60672  0.29042  Biso   1.000  N 
  C15      1.0000 0.65368  0.54178  0.27754  Biso   1.000  C 
  N23      1.0000 0.62090  0.47085  0.26530  Biso   1.000  N 
  C16      1.0000 0.66362  0.40638  0.24842  Biso   1.000  C 
  N24      1.0000 0.69433  0.34532  0.23319  Biso   1.000  N 
  Mn7      1.0000 0.76080  0.22630  0.21873  Biso   1.000  Mn
  N25      1.0000 0.74570  0.23790  0.09381  Biso   1.000  N 
  C17      1.0000 0.73840  0.27750  0.03750  Biso   1.000  C 
  N26      1.0000 0.72450  0.32390  0.97880  Biso   1.000  N 
  C18      1.0000 0.72480  0.29630  0.90900  Biso   1.000  C 
  N27      1.0000 0.71920  0.27490  0.84515  Biso   1.000  N 
  Mn8      1.0000 0.72630  0.26080  0.71873  Biso   1.000  Mn
  N28      1.0000 0.60672  0.32503  0.70958  Biso   1.000  N 
  C19      1.0000 0.54178  0.34632  0.72246  Biso   1.000  C 
  N29      1.0000 0.47085  0.37910  0.73470  Biso   1.000  N 
  C20      1.0000 0.40638  0.33638  0.75158  Biso   1.000  C 
  N30      1.0000 0.34532  0.30567  0.76681  Biso   1.000  N 
  N31      1.0000 0.66258  0.13928  0.72935  Biso   1.000  N 
  C21      1.0000 0.64790  0.07480  0.75150  Biso   1.000  C 
  N32      1.0000 0.62210  0.00520  0.77820  Biso   1.000  N 
  C22      1.0000 0.66920  0.94090  0.78030  Biso   1.000  C 
  N33      1.0000 0.70549  0.87994  0.78816  Biso   1.000  N 
  N34      1.0000 0.73790  0.24570  0.59381  Biso   1.000  N 
  C23      1.0000 0.77750  0.23840  0.53750  Biso   1.000  C 
  N35      1.0000 0.82390  0.22450  0.47880  Biso   1.000  N 
  C24      1.0000 0.79630  0.22480  0.40900  Biso   1.000  C 
  N36      1.0000 0.77490  0.21920  0.34515  Biso   1.000  N 
  N37      1.0000 0.79451  0.37994  0.71184  Biso   1.000  N 
  C25      1.0000 0.83080  0.44090  0.71970  Biso   1.000  C 
  N38      1.0000 0.87790  0.50520  0.72180  Biso   1.000  N 
  C26      1.0000 0.85210  0.57480  0.74850  Biso   1.000  C 
  N39      1.0000 0.83742  0.63928  0.77065  Biso   1.000  N 
  N40      1.0000 0.84532  0.19433  0.73319  Biso   1.000  N 
  C27      1.0000 0.90638  0.16362  0.74842  Biso   1.000  C 
  N41      1.0000 0.97085  0.12090  0.76530  Biso   1.000  N 
  C28      1.0000 0.04178  0.15368  0.77754  Biso   1.000  C 
  N42      1.0000 0.10672  0.17497  0.79042  Biso   1.000  N 
  N43      1.0000 0.82503  0.10672  0.20958  Biso   1.000  N 
  C29      1.0000 0.84632  0.04178  0.22246  Biso   1.000  C 
  N44      1.0000 0.87910  0.97085  0.23470  Biso   1.000  N 
  C30      1.0000 0.83638  0.90638  0.25158  Biso   1.000  C 
  N45      1.0000 0.80567  0.84532  0.26681  Biso   1.000  N 
  N46      1.0000 0.63928  0.16258  0.22935  Biso   1.000  N 
  C31      1.0000 0.57480  0.14790  0.25150  Biso   1.000  C 
  N47      1.0000 0.50520  0.12210  0.27820  Biso   1.000  N 
  C32      1.0000 0.44090  0.16920  0.28030  Biso   1.000  C 
  N48      1.0000 0.37994  0.20549  0.28816  Biso   1.000  N 
  N49      1.0000 0.87994  0.29451  0.21184  Biso   1.000  N 
  C33      1.0000 0.94090  0.33080  0.21970  Biso   1.000  C 
  N50      1.0000 0.00520  0.37790  0.22180  Biso   1.000  N 
  C34      1.0000 0.07480  0.35210  0.24850  Biso   1.000  C 
  N51      1.0000 0.13928  0.33742  0.27065  Biso   1.000  N 
  N52      1.0000 0.86072  0.66258  0.27065  Biso   1.000  N 
  C35      1.0000 0.92520  0.64790  0.24850  Biso   1.000  C 
  N53      1.0000 0.99480  0.62210  0.22180  Biso   1.000  N 
  C36      1.0000 0.05910  0.66920  0.21970  Biso   1.000  C 
  N54      1.0000 0.12006  0.70549  0.21184  Biso   1.000  N 
  N55      1.0000 0.62006  0.79451  0.28816  Biso   1.000  N 
  C37      1.0000 0.55910  0.83080  0.28030  Biso   1.000  C 
  N56      1.0000 0.49480  0.87790  0.27820  Biso   1.000  N 
  C38      1.0000 0.42520  0.85210  0.25150  Biso   1.000  C 
  N57      1.0000 0.36072  0.83742  0.22935  Biso   1.000  N 
  N58      1.0000 0.65468  0.69433  0.76681  Biso   1.000  N 
  C39      1.0000 0.59362  0.66362  0.75158  Biso   1.000  C 
  N59      1.0000 0.52915  0.62090  0.73470  Biso   1.000  N 
  C40      1.0000 0.45822  0.65368  0.72246  Biso   1.000  C 
  N60      1.0000 0.39328  0.67497  0.70958  Biso   1.000  N 
  N61      1.0000 0.26210  0.75430  0.59381  Biso   1.000  N 
  C41      1.0000 0.22250  0.76160  0.53750  Biso   1.000  C 
  N62      1.0000 0.17610  0.77550  0.47880  Biso   1.000  N 
  C42      1.0000 0.20370  0.77520  0.40900  Biso   1.000  C 
  N63      1.0000 0.22510  0.78080  0.34515  Biso   1.000  N 
  N64      1.0000 0.33742  0.86072  0.72935  Biso   1.000  N 
  C43      1.0000 0.35210  0.92520  0.75150  Biso   1.000  C 
  N65      1.0000 0.37790  0.99480  0.77820  Biso   1.000  N 
  C44      1.0000 0.33080  0.05910  0.78030  Biso   1.000  C 
  N66      1.0000 0.29451  0.12006  0.78816  Biso   1.000  N 
  N67      1.0000 0.28080  0.72510  0.84515  Biso   1.000  N 
  C45      1.0000 0.27520  0.70370  0.90900  Biso   1.000  C 
  N68      1.0000 0.27550  0.67610  0.97880  Biso   1.000  N 
  C46      1.0000 0.26160  0.72250  0.03750  Biso   1.000  C 
  N69      1.0000 0.25430  0.76210  0.09381  Biso   1.000  N 
  N70      1.0000 0.19433  0.15468  0.26681  Biso   1.000  N 
  C47      1.0000 0.16362  0.09362  0.25158  Biso   1.000  C 
  N71      1.0000 0.12090  0.02915  0.23470  Biso   1.000  N 
  C48      1.0000 0.15368  0.95822  0.22246  Biso   1.000  C 
  N72      1.0000 0.17497  0.89328  0.20958  Biso   1.000  N 
