data_image0
_cell_length_a       15.837
_cell_length_b       10.568
_cell_length_c       21.099
_cell_angle_alpha    90
_cell_angle_beta     107.098
_cell_angle_gamma    90

_symmetry_space_group_name_H-M    "P 1"
_symmetry_int_tables_number       1

loop_
  _symmetry_equiv_pos_as_xyz
  'x, y, z'

loop_
  _atom_site_label
  _atom_site_occupancy
  _atom_site_fract_x
  _atom_site_fract_y
  _atom_site_fract_z
  _atom_site_thermal_displace_type
  _atom_site_B_iso_or_equiv
  _atom_site_type_symbol
  Pr1      1.0000 0.39919  0.08118  0.54697  Biso   1.000  Pr
  C1       1.0000 0.42150  0.13500  0.39580  Biso   1.000  C 
  C2       1.0000 0.36890  0.15720  0.32410  Biso   1.000  C 
  C3       1.0000 0.38530  0.08830  0.27340  Biso   1.000  C 
  C4       1.0000 0.33280  0.11040  0.20870  Biso   1.000  C 
  C5       1.0000 0.34650  0.03410  0.15250  Biso   1.000  C 
  Pr2      1.0000 0.39919  0.91882  0.04697  Biso   1.000  Pr
  O1       1.0000 0.38130  0.69860  0.07560  Biso   1.000  O 
  C6       1.0000 0.38240  0.58700  0.06660  Biso   1.000  C 
  N1       1.0000 0.39570  0.49510  0.09730  Biso   1.000  N 
  C7       1.0000 0.39450  0.36040  0.08450  Biso   1.000  C 
  H1       1.0000 0.33610  0.33530  0.05910  Biso   1.000  H 
  H2       1.0000 0.43540  0.34130  0.06010  Biso   1.000  H 
  H3       1.0000 0.41130  0.31540  0.12580  Biso   1.000  H 
  C8       1.0000 0.41190  0.51570  0.16810  Biso   1.000  C 
  H4       1.0000 0.36110  0.55490  0.17570  Biso   1.000  H 
  H5       1.0000 0.42290  0.43600  0.19080  Biso   1.000  H 
  H6       1.0000 0.46240  0.56980  0.18440  Biso   1.000  H 
  C9       1.0000 0.41080  0.54470  0.99980  Biso   1.000  C 
  H7       1.0000 0.36660  0.57330  0.96070  Biso   1.000  H 
  H8       1.0000 0.41560  0.45430  0.99860  Biso   1.000  H 
  H9       1.0000 0.46660  0.58220  0.00150  Biso   1.000  H 
  O2       1.0000 0.39310  0.93560  0.16380  Biso   1.000  O 
  O3       1.0000 0.54280  0.82780  0.06460  Biso   1.000  O 
  C10      1.0000 0.62220  0.83110  0.06780  Biso   1.000  C 
  O4       1.0000 0.65560  0.91270  0.03870  Biso   1.000  O 
  Pr3      1.0000 0.60081  0.08118  0.95303  Biso   1.000  Pr
  O5       1.0000 0.61870  0.30140  0.92440  Biso   1.000  O 
  C11      1.0000 0.61760  0.41300  0.93340  Biso   1.000  C 
  N2       1.0000 0.60430  0.50490  0.90270  Biso   1.000  N 
  C12      1.0000 0.58810  0.48430  0.83190  Biso   1.000  C 
  H10      1.0000 0.53760  0.43020  0.81560  Biso   1.000  H 
  H11      1.0000 0.57710  0.56400  0.80920  Biso   1.000  H 
  H12      1.0000 0.63890  0.44510  0.82430  Biso   1.000  H 
  C13      1.0000 0.60550  0.63960  0.91550  Biso   1.000  C 
  H13      1.0000 0.56460  0.65870  0.93990  Biso   1.000  H 
  H14      1.0000 0.58870  0.68460  0.87420  Biso   1.000  H 
  H15      1.0000 0.66390  0.66470  0.94090  Biso   1.000  H 
  C14      1.0000 0.58920  0.45530  0.00020  Biso   1.000  C 
  H16      1.0000 0.58440  0.54570  0.00140  Biso   1.000  H 
  H17      1.0000 0.63340  0.42670  0.03930  Biso   1.000  H 
  H18      1.0000 0.53340  0.41780  0.99850  Biso   1.000  H 
  O6       1.0000 0.45720  0.17220  0.93540  Biso   1.000  O 
  C15      1.0000 0.37780  0.16890  0.93220  Biso   1.000  C 
  O7       1.0000 0.34440  0.08730  0.96130  Biso   1.000  O 
  C16      1.0000 0.31910  0.26790  0.89170  Biso   1.000  C 
  C17      1.0000 0.34530  0.33320  0.84420  Biso   1.000  C 
  H19      1.0000 0.39770  0.31180  0.83540  Biso   1.000  H 
  C18      1.0000 0.29310  0.43190  0.80920  Biso   1.000  C 
  H20      1.0000 0.31160  0.47600  0.77740  Biso   1.000  H 
  C19      1.0000 0.21570  0.46430  0.82080  Biso   1.000  C 
  C20      1.0000 0.18790  0.39640  0.86650  Biso   1.000  C 
  H21      1.0000 0.13410  0.41590  0.87360  Biso   1.000  H 
  C21      1.0000 0.23920  0.29900  0.90240  Biso   1.000  C 
  H22      1.0000 0.22000  0.25460  0.93360  Biso   1.000  H 
  C22      1.0000 0.15880  0.57520  0.78600  Biso   1.000  C 
  H23      1.0000 0.09840  0.54620  0.76770  Biso   1.000  H 
  H24      1.0000 0.15910  0.64000  0.81870  Biso   1.000  H 
  N3       1.0000 0.18820  0.63100  0.73320  Biso   1.000  N 
  C23      1.0000 0.13500  0.59940  0.66610  Biso   1.000  C 
  H25      1.0000 0.17080  0.61090  0.63620  Biso   1.000  H 
  C24      1.0000 0.05210  0.67680  0.64110  Biso   1.000  C 
  C25      1.0000 0.03640  0.78300  0.67290  Biso   1.000  C 
  H26      1.0000 0.07800  0.80800  0.71200  Biso   1.000  H 
  C26      1.0000 0.96010  0.85450  0.64860  Biso   1.000  C 
  C27      1.0000 0.89730  0.81730  0.59060  Biso   1.000  C 
  C28      1.0000 0.81580  0.89100  0.56290  Biso   1.000  C 
  O8       1.0000 0.80680  0.98850  0.59920  Biso   1.000  O 
  O9       1.0000 0.76200  0.86380  0.51070  Biso   1.000  O 
  Pr4      1.0000 0.60081  0.91882  0.45303  Biso   1.000  Pr
  O10      1.0000 0.45720  0.82780  0.43540  Biso   1.000  O 
  C29      1.0000 0.37780  0.83110  0.43220  Biso   1.000  C 
  O11      1.0000 0.34440  0.91270  0.46130  Biso   1.000  O 
  C30      1.0000 0.31910  0.73210  0.39170  Biso   1.000  C 
  C31      1.0000 0.34530  0.66680  0.34420  Biso   1.000  C 
  H27      1.0000 0.39770  0.68820  0.33540  Biso   1.000  H 
  C32      1.0000 0.29310  0.56810  0.30920  Biso   1.000  C 
  H28      1.0000 0.31160  0.52400  0.27740  Biso   1.000  H 
  C33      1.0000 0.21570  0.53570  0.32080  Biso   1.000  C 
  C34      1.0000 0.18790  0.60360  0.36650  Biso   1.000  C 
  H29      1.0000 0.13410  0.58410  0.37360  Biso   1.000  H 
  C35      1.0000 0.23920  0.70100  0.40240  Biso   1.000  C 
  H30      1.0000 0.22000  0.74540  0.43360  Biso   1.000  H 
  C36      1.0000 0.15880  0.42480  0.28600  Biso   1.000  C 
  H31      1.0000 0.15910  0.36000  0.31870  Biso   1.000  H 
  H32      1.0000 0.09840  0.45380  0.26770  Biso   1.000  H 
  N4       1.0000 0.18820  0.36900  0.23320  Biso   1.000  N 
  C37      1.0000 0.13500  0.40060  0.16610  Biso   1.000  C 
  C38      1.0000 0.05210  0.32320  0.14110  Biso   1.000  C 
  C39      1.0000 0.03640  0.21700  0.17290  Biso   1.000  C 
  H33      1.0000 0.07800  0.19200  0.21200  Biso   1.000  H 
  C40      1.0000 0.96010  0.14550  0.14860  Biso   1.000  C 
  C41      1.0000 0.89730  0.18270  0.09060  Biso   1.000  C 
  C42      1.0000 0.81580  0.10900  0.06290  Biso   1.000  C 
  O12      1.0000 0.80680  0.01150  0.09920  Biso   1.000  O 
  O13      1.0000 0.76200  0.13620  0.01070  Biso   1.000  O 
  C43      1.0000 0.91130  0.29190  0.05870  Biso   1.000  C 
  H34      1.0000 0.86890  0.31860  0.02040  Biso   1.000  H 
  C44      1.0000 0.98750  0.36080  0.08340  Biso   1.000  C 
  H35      1.0000 0.99620  0.43370  0.06130  Biso   1.000  H 
  H36      1.0000 0.95110  0.07340  0.17110  Biso   1.000  H 
  H37      1.0000 0.17080  0.38910  0.13620  Biso   1.000  H 
  H38      1.0000 0.11890  0.48930  0.16480  Biso   1.000  H 
  C45      1.0000 0.25160  0.27380  0.24590  Biso   1.000  C 
  C46      1.0000 0.26740  0.20200  0.19560  Biso   1.000  C 
  H39      1.0000 0.23330  0.21560  0.15210  Biso   1.000  H 
  C47      1.0000 0.30270  0.24990  0.30940  Biso   1.000  C 
  H40      1.0000 0.29310  0.29680  0.34390  Biso   1.000  H 
  O14      1.0000 0.60690  0.93560  0.33620  Biso   1.000  O 
  C48      1.0000 0.65350  0.03410  0.34750  Biso   1.000  C 
  O15      1.0000 0.69020  0.07100  0.40600  Biso   1.000  O 
  C49      1.0000 0.66720  0.11040  0.29130  Biso   1.000  C 
  C50      1.0000 0.73260  0.20200  0.30440  Biso   1.000  C 
  H41      1.0000 0.76670  0.21560  0.34790  Biso   1.000  H 
  C51      1.0000 0.74840  0.27380  0.25410  Biso   1.000  C 
  N5       1.0000 0.81180  0.36900  0.26680  Biso   1.000  N 
  C52      1.0000 0.86500  0.40060  0.33390  Biso   1.000  C 
  H42      1.0000 0.88110  0.48930  0.33520  Biso   1.000  H 
  C53      1.0000 0.94790  0.32320  0.35890  Biso   1.000  C 
  C54      1.0000 0.96360  0.21700  0.32710  Biso   1.000  C 
  H43      1.0000 0.92200  0.19200  0.28800  Biso   1.000  H 
  C55      1.0000 0.03990  0.14550  0.35140  Biso   1.000  C 
  H44      1.0000 0.04890  0.07340  0.32890  Biso   1.000  H 
  C56      1.0000 0.10270  0.18270  0.40940  Biso   1.000  C 
  C57      1.0000 0.18420  0.10900  0.43710  Biso   1.000  C 
  O16      1.0000 0.19320  0.01150  0.40080  Biso   1.000  O 
  O17      1.0000 0.23800  0.13620  0.48930  Biso   1.000  O 
  C58      1.0000 0.08870  0.29190  0.44130  Biso   1.000  C 
  H45      1.0000 0.13110  0.31860  0.47960  Biso   1.000  H 
  C59      1.0000 0.01250  0.36080  0.41660  Biso   1.000  C 
  H46      1.0000 0.00380  0.43370  0.43870  Biso   1.000  H 
  H47      1.0000 0.82920  0.38910  0.36380  Biso   1.000  H 
  C60      1.0000 0.84120  0.42480  0.21400  Biso   1.000  C 
  H48      1.0000 0.84090  0.36000  0.18130  Biso   1.000  H 
  H49      1.0000 0.90160  0.45380  0.23230  Biso   1.000  H 
  C61      1.0000 0.78430  0.53570  0.17920  Biso   1.000  C 
  C62      1.0000 0.81210  0.60360  0.13350  Biso   1.000  C 
  H50      1.0000 0.86590  0.58410  0.12640  Biso   1.000  H 
  C63      1.0000 0.76080  0.70100  0.09760  Biso   1.000  C 
  H51      1.0000 0.78000  0.74540  0.06640  Biso   1.000  H 
  C64      1.0000 0.68090  0.73210  0.10830  Biso   1.000  C 
  C65      1.0000 0.65470  0.66680  0.15580  Biso   1.000  C 
  H52      1.0000 0.60230  0.68820  0.16460  Biso   1.000  H 
  C66      1.0000 0.70690  0.56810  0.19080  Biso   1.000  C 
  H53      1.0000 0.68840  0.52400  0.22260  Biso   1.000  H 
  C67      1.0000 0.69730  0.24990  0.19060  Biso   1.000  C 
  H54      1.0000 0.70690  0.29680  0.15610  Biso   1.000  H 
  C68      1.0000 0.63110  0.15720  0.17590  Biso   1.000  C 
  C69      1.0000 0.61470  0.08830  0.22660  Biso   1.000  C 
  H55      1.0000 0.56960  0.02860  0.21780  Biso   1.000  H 
  C70      1.0000 0.57850  0.13500  0.10420  Biso   1.000  C 
  O18      1.0000 0.50530  0.07820  0.09280  Biso   1.000  O 
  O19      1.0000 0.60990  0.17270  0.06040  Biso   1.000  O 
  O20      1.0000 0.60990  0.82730  0.56040  Biso   1.000  O 
  C71      1.0000 0.57850  0.86500  0.60420  Biso   1.000  C 
  C72      1.0000 0.63110  0.84280  0.67590  Biso   1.000  C 
  C73      1.0000 0.69730  0.75010  0.69060  Biso   1.000  C 
  H56      1.0000 0.70690  0.70320  0.65610  Biso   1.000  H 
  C74      1.0000 0.74840  0.72620  0.75410  Biso   1.000  C 
  N6       1.0000 0.81180  0.63100  0.76680  Biso   1.000  N 
  C75      1.0000 0.86500  0.59940  0.83390  Biso   1.000  C 
  H57      1.0000 0.88110  0.51070  0.83520  Biso   1.000  H 
  H58      1.0000 0.82920  0.61090  0.86380  Biso   1.000  H 
  C76      1.0000 0.94790  0.67680  0.85890  Biso   1.000  C 
  C77      1.0000 0.96360  0.78300  0.82710  Biso   1.000  C 
  H59      1.0000 0.92200  0.80800  0.78800  Biso   1.000  H 
  C78      1.0000 0.03990  0.85450  0.85140  Biso   1.000  C 
  H60      1.0000 0.04890  0.92660  0.82890  Biso   1.000  H 
  C79      1.0000 0.10270  0.81730  0.90940  Biso   1.000  C 
  C80      1.0000 0.18420  0.89100  0.93710  Biso   1.000  C 
  O21      1.0000 0.19320  0.98850  0.90080  Biso   1.000  O 
  O22      1.0000 0.23800  0.86380  0.98930  Biso   1.000  O 
  C81      1.0000 0.08870  0.70810  0.94130  Biso   1.000  C 
  H61      1.0000 0.13110  0.68140  0.97960  Biso   1.000  H 
  C82      1.0000 0.01250  0.63920  0.91660  Biso   1.000  C 
  H62      1.0000 0.00380  0.56630  0.93870  Biso   1.000  H 
  C83      1.0000 0.84120  0.57520  0.71400  Biso   1.000  C 
  C84      1.0000 0.78430  0.46430  0.67920  Biso   1.000  C 
  C85      1.0000 0.70690  0.43190  0.69080  Biso   1.000  C 
  H63      1.0000 0.68840  0.47600  0.72260  Biso   1.000  H 
  C86      1.0000 0.65470  0.33320  0.65580  Biso   1.000  C 
  C87      1.0000 0.68090  0.26790  0.60830  Biso   1.000  C 
  C88      1.0000 0.62220  0.16890  0.56780  Biso   1.000  C 
  O23      1.0000 0.54280  0.17220  0.56460  Biso   1.000  O 
  O24      1.0000 0.65560  0.08730  0.53870  Biso   1.000  O 
  C89      1.0000 0.76080  0.29900  0.59760  Biso   1.000  C 
  H64      1.0000 0.78000  0.25460  0.56640  Biso   1.000  H 
  C90      1.0000 0.81210  0.39640  0.63350  Biso   1.000  C 
  H65      1.0000 0.86590  0.41590  0.62640  Biso   1.000  H 
  H66      1.0000 0.60230  0.31180  0.66460  Biso   1.000  H 
  H67      1.0000 0.90160  0.54620  0.73230  Biso   1.000  H 
  H68      1.0000 0.84090  0.64000  0.68130  Biso   1.000  H 
  C91      1.0000 0.73260  0.79800  0.80440  Biso   1.000  C 
  H69      1.0000 0.76670  0.78440  0.84790  Biso   1.000  H 
  C92      1.0000 0.66720  0.88960  0.79130  Biso   1.000  C 
  C93      1.0000 0.65350  0.96590  0.84750  Biso   1.000  C 
  O25      1.0000 0.60690  0.06440  0.83620  Biso   1.000  O 
  O26      1.0000 0.69020  0.92900  0.90600  Biso   1.000  O 
  C94      1.0000 0.61470  0.91170  0.72660  Biso   1.000  C 
  H70      1.0000 0.56960  0.97140  0.71780  Biso   1.000  H 
  O27      1.0000 0.50530  0.92180  0.59280  Biso   1.000  O 
  O28      1.0000 0.61870  0.69860  0.42440  Biso   1.000  O 
  C95      1.0000 0.61760  0.58700  0.43340  Biso   1.000  C 
  N7       1.0000 0.60430  0.49510  0.40270  Biso   1.000  N 
  C96      1.0000 0.58810  0.51570  0.33190  Biso   1.000  C 
  H71      1.0000 0.57710  0.43600  0.30920  Biso   1.000  H 
  H72      1.0000 0.63890  0.55490  0.32430  Biso   1.000  H 
  H73      1.0000 0.53760  0.56980  0.31560  Biso   1.000  H 
  C97      1.0000 0.60550  0.36040  0.41550  Biso   1.000  C 
  H74      1.0000 0.58870  0.31540  0.37420  Biso   1.000  H 
  H75      1.0000 0.56460  0.34130  0.43990  Biso   1.000  H 
  H76      1.0000 0.66390  0.33530  0.44090  Biso   1.000  H 
  C98      1.0000 0.58920  0.54470  0.50020  Biso   1.000  C 
  H77      1.0000 0.58440  0.45430  0.50140  Biso   1.000  H 
  H78      1.0000 0.63340  0.57330  0.53930  Biso   1.000  H 
  H79      1.0000 0.53340  0.58220  0.49850  Biso   1.000  H 
  O29      1.0000 0.49470  0.07820  0.40720  Biso   1.000  O 
  C99      1.0000 0.91130  0.70810  0.55870  Biso   1.000  C 
  H80      1.0000 0.86890  0.68140  0.52040  Biso   1.000  H 
  C100     1.0000 0.98750  0.63920  0.58340  Biso   1.000  C 
  H81      1.0000 0.99620  0.56630  0.56130  Biso   1.000  H 
  H82      1.0000 0.95110  0.92660  0.67110  Biso   1.000  H 
  H83      1.0000 0.11890  0.51070  0.66480  Biso   1.000  H 
  C101     1.0000 0.25160  0.72620  0.74590  Biso   1.000  C 
  C102     1.0000 0.26740  0.79800  0.69560  Biso   1.000  C 
  H84      1.0000 0.23330  0.78440  0.65210  Biso   1.000  H 
  C103     1.0000 0.33280  0.88960  0.70870  Biso   1.000  C 
  C104     1.0000 0.34650  0.96590  0.65250  Biso   1.000  C 
  O30      1.0000 0.39310  0.06440  0.66380  Biso   1.000  O 
  O31      1.0000 0.30980  0.92900  0.59400  Biso   1.000  O 
  C105     1.0000 0.38530  0.91170  0.77340  Biso   1.000  C 
  H85      1.0000 0.43040  0.97140  0.78220  Biso   1.000  H 
  C106     1.0000 0.36890  0.84280  0.82410  Biso   1.000  C 
  C107     1.0000 0.30270  0.75010  0.80940  Biso   1.000  C 
  H86      1.0000 0.29310  0.70320  0.84390  Biso   1.000  H 
  C108     1.0000 0.42150  0.86500  0.89580  Biso   1.000  C 
  O32      1.0000 0.49470  0.92180  0.90720  Biso   1.000  O 
  O33      1.0000 0.39010  0.82730  0.93960  Biso   1.000  O 
  O34      1.0000 0.30980  0.07100  0.09400  Biso   1.000  O 
  H87      1.0000 0.43040  0.02860  0.28220  Biso   1.000  H 
  O35      1.0000 0.39010  0.17270  0.43960  Biso   1.000  O 
  O36      1.0000 0.38130  0.30140  0.57560  Biso   1.000  O 
  C109     1.0000 0.38240  0.41300  0.56660  Biso   1.000  C 
  C110     1.0000 0.41080  0.45530  0.49980  Biso   1.000  C 
  H88      1.0000 0.46660  0.41780  0.50150  Biso   1.000  H 
  H89      1.0000 0.36660  0.42670  0.46070  Biso   1.000  H 
  H90      1.0000 0.41560  0.54570  0.49860  Biso   1.000  H 
  N8       1.0000 0.39570  0.50490  0.59730  Biso   1.000  N 
  C111     1.0000 0.39450  0.63960  0.58450  Biso   1.000  C 
  H91      1.0000 0.33610  0.66470  0.55910  Biso   1.000  H 
  H92      1.0000 0.41130  0.68460  0.62580  Biso   1.000  H 
  H93      1.0000 0.43540  0.65870  0.56010  Biso   1.000  H 
  C112     1.0000 0.41190  0.48430  0.66810  Biso   1.000  C 
  H94      1.0000 0.36110  0.44510  0.67570  Biso   1.000  H 
  H95      1.0000 0.46240  0.43020  0.68440  Biso   1.000  H 
  H96      1.0000 0.42290  0.56400  0.69080  Biso   1.000  H 
