data_image0
_cell_length_a       10.7701
_cell_length_b       16.3976
_cell_length_c       12.932
_cell_angle_alpha    90
_cell_angle_beta     100.766
_cell_angle_gamma    90

_symmetry_space_group_name_H-M    "P 1"
_symmetry_int_tables_number       1

loop_
  _symmetry_equiv_pos_as_xyz
  'x, y, z'

loop_
  _atom_site_label
  _atom_site_occupancy
  _atom_site_fract_x
  _atom_site_fract_y
  _atom_site_fract_z
  _atom_site_thermal_displace_type
  _atom_site_B_iso_or_equiv
  _atom_site_type_symbol
  Pb1      1.0000 0.65174  0.47178  0.45513  Biso   1.000  Pb
  O1       1.0000 0.45680  0.37430  0.45910  Biso   1.000  O 
  C1       1.0000 0.53120  0.31600  0.48490  Biso   1.000  C 
  O2       1.0000 0.64960  0.32330  0.49800  Biso   1.000  O 
  C2       1.0000 0.47610  0.23460  0.50220  Biso   1.000  C 
  C3       1.0000 0.55220  0.16980  0.54420  Biso   1.000  C 
  C4       1.0000 0.49850  0.09660  0.56450  Biso   1.000  C 
  H1       1.0000 0.54980  0.05320  0.59200  Biso   1.000  H 
  C5       1.0000 0.36920  0.08760  0.54410  Biso   1.000  C 
  C6       1.0000 0.29210  0.15080  0.50090  Biso   1.000  C 
  H2       1.0000 0.20480  0.14430  0.48550  Biso   1.000  H 
  C7       1.0000 0.34670  0.22350  0.48120  Biso   1.000  C 
  H3       1.0000 0.29500  0.26650  0.45300  Biso   1.000  H 
  O3       1.0000 0.32400  0.01270  0.57260  Biso   1.000  O 
  C8       1.0000 0.21930  0.97650  0.51320  Biso   1.000  C 
  C9       1.0000 0.16620  0.91480  0.56540  Biso   1.000  C 
  H4       1.0000 0.20140  0.90460  0.63550  Biso   1.000  H 
  N1       1.0000 0.06840  0.87010  0.52050  Biso   1.000  N 
  C10      1.0000 0.01910  0.88730  0.41980  Biso   1.000  C 
  H5       1.0000 0.95000  0.85710  0.38670  Biso   1.000  H 
  C11      1.0000 0.06540  0.94750  0.36230  Biso   1.000  C 
  C12      1.0000 0.16900  0.99180  0.40970  Biso   1.000  C 
  H6       1.0000 0.20420  0.03130  0.37230  Biso   1.000  H 
  C13      1.0000 0.00000  0.96530  0.25160  Biso   1.000  C 
  O4       1.0000 0.03970  0.01980  0.19980  Biso   1.000  O 
  Pb2      1.0000 0.84826  0.97178  0.04487  Biso   1.000  Pb
  O5       1.0000 0.85040  0.82330  0.00200  Biso   1.000  O 
  C14      1.0000 0.96880  0.81600  0.01510  Biso   1.000  C 
  O6       1.0000 0.04320  0.87430  0.04090  Biso   1.000  O 
  C15      1.0000 0.02390  0.73460  0.99780  Biso   1.000  C 
  C16      1.0000 0.94780  0.66980  0.95580  Biso   1.000  C 
  H7       1.0000 0.86040  0.67590  0.94130  Biso   1.000  H 
  C17      1.0000 0.00150  0.59660  0.93550  Biso   1.000  C 
  H8       1.0000 0.95020  0.55320  0.90800  Biso   1.000  H 
  C18      1.0000 0.13080  0.58760  0.95590  Biso   1.000  C 
  C19      1.0000 0.20790  0.65080  0.99910  Biso   1.000  C 
  H9       1.0000 0.29520  0.64430  0.01450  Biso   1.000  H 
  C20      1.0000 0.15330  0.72350  0.01880  Biso   1.000  C 
  H10      1.0000 0.20500  0.76650  0.04700  Biso   1.000  H 
  O7       1.0000 0.17600  0.51270  0.92740  Biso   1.000  O 
  C21      1.0000 0.28070  0.47650  0.98680  Biso   1.000  C 
  C22      1.0000 0.33380  0.41480  0.93460  Biso   1.000  C 
  H11      1.0000 0.29860  0.40460  0.86450  Biso   1.000  H 
  N2       1.0000 0.43160  0.37010  0.97950  Biso   1.000  N 
  C23      1.0000 0.48090  0.38730  0.08020  Biso   1.000  C 
  H12      1.0000 0.55000  0.35710  0.11330  Biso   1.000  H 
  C24      1.0000 0.43460  0.44750  0.13770  Biso   1.000  C 
  C25      1.0000 0.33100  0.49180  0.09030  Biso   1.000  C 
  H13      1.0000 0.29580  0.53130  0.12770  Biso   1.000  H 
  C26      1.0000 0.50000  0.46530  0.24840  Biso   1.000  C 
  O8       1.0000 0.46030  0.51980  0.30020  Biso   1.000  O 
  O9       1.0000 0.59710  0.42260  0.28380  Biso   1.000  O 
  O10      1.0000 0.90290  0.92260  0.21620  Biso   1.000  O 
  N3       1.0000 0.63610  0.92960  0.09200  Biso   1.000  N 
  C27      1.0000 0.59150  0.85470  0.07310  Biso   1.000  C 
  C28      1.0000 0.47690  0.82780  0.09610  Biso   1.000  C 
  H14      1.0000 0.45120  0.77390  0.08410  Biso   1.000  H 
  C29      1.0000 0.40440  0.88150  0.13610  Biso   1.000  C 
  H15      1.0000 0.32680  0.86500  0.15060  Biso   1.000  H 
  C30      1.0000 0.44500  0.96290  0.15630  Biso   1.000  C 
  C31      1.0000 0.56500  0.98380  0.13510  Biso   1.000  C 
  C32      1.0000 0.61330  0.06400  0.16100  Biso   1.000  C 
  N4       1.0000 0.73060  0.08250  0.14400  Biso   1.000  N 
  C33      1.0000 0.77720  0.15630  0.16870  Biso   1.000  C 
  H16      1.0000 0.85760  0.16850  0.15650  Biso   1.000  H 
  C34      1.0000 0.71090  0.21650  0.21210  Biso   1.000  C 
  H17      1.0000 0.74630  0.26770  0.22810  Biso   1.000  H 
  C35      1.0000 0.59400  0.19880  0.23050  Biso   1.000  C 
  H18      1.0000 0.54920  0.23810  0.26020  Biso   1.000  H 
  C36      1.0000 0.53990  0.12160  0.20480  Biso   1.000  C 
  C37      1.0000 0.41680  0.09900  0.22210  Biso   1.000  C 
  H19      1.0000 0.36730  0.13680  0.24950  Biso   1.000  H 
  C38      1.0000 0.37280  0.02290  0.19850  Biso   1.000  C 
  H20      1.0000 0.29280  0.00920  0.21020  Biso   1.000  H 
  H21      1.0000 0.63950  0.81780  0.04260  Biso   1.000  H 
  H22      1.0000 0.63960  0.17590  0.55870  Biso   1.000  H 
  N5       1.0000 0.86390  0.42960  0.40800  Biso   1.000  N 
  C39      1.0000 0.90850  0.35470  0.42690  Biso   1.000  C 
  H23      1.0000 0.86050  0.31780  0.45740  Biso   1.000  H 
  C40      1.0000 0.02310  0.32780  0.40390  Biso   1.000  C 
  H24      1.0000 0.04880  0.27390  0.41590  Biso   1.000  H 
  C41      1.0000 0.09560  0.38150  0.36390  Biso   1.000  C 
  H25      1.0000 0.17320  0.36500  0.34940  Biso   1.000  H 
  C42      1.0000 0.05500  0.46290  0.34370  Biso   1.000  C 
  C43      1.0000 0.12720  0.52290  0.30150  Biso   1.000  C 
  C44      1.0000 0.08320  0.59900  0.27790  Biso   1.000  C 
  H26      1.0000 0.13270  0.63680  0.25050  Biso   1.000  H 
  C45      1.0000 0.96010  0.62160  0.29520  Biso   1.000  C 
  C46      1.0000 0.88670  0.56400  0.33900  Biso   1.000  C 
  N6       1.0000 0.76940  0.58250  0.35600  Biso   1.000  N 
  C47      1.0000 0.72280  0.65630  0.33130  Biso   1.000  C 
  H27      1.0000 0.64240  0.66850  0.34350  Biso   1.000  H 
  C48      1.0000 0.78910  0.71650  0.28790  Biso   1.000  C 
  H28      1.0000 0.75370  0.76770  0.27190  Biso   1.000  H 
  C49      1.0000 0.90600  0.69880  0.26950  Biso   1.000  C 
  H29      1.0000 0.95080  0.73810  0.23980  Biso   1.000  H 
  C50      1.0000 0.93500  0.48380  0.36490  Biso   1.000  C 
  H30      1.0000 0.20720  0.50920  0.28980  Biso   1.000  H 
