data_image0
_cell_length_a       10.4005
_cell_length_b       9.209
_cell_length_c       23.2616
_cell_angle_alpha    90
_cell_angle_beta     100.273
_cell_angle_gamma    90

_symmetry_space_group_name_H-M    "P 1"
_symmetry_int_tables_number       1

loop_
  _symmetry_equiv_pos_as_xyz
  'x, y, z'

loop_
  _atom_site_label
  _atom_site_occupancy
  _atom_site_fract_x
  _atom_site_fract_y
  _atom_site_fract_z
  _atom_site_thermal_displace_type
  _atom_site_B_iso_or_equiv
  _atom_site_type_symbol
  C1       1.0000 0.46340  0.40180  0.16390  Biso   1.000  C 
  N1       1.0000 0.46600  0.33930  0.22090  Biso   1.000  N 
  Co1      1.0000 0.31947  0.20270  0.22731  Biso   1.000  Co
  O1       1.0000 0.36480  0.99510  0.24350  Biso   1.000  O 
  C2       1.0000 0.44560  0.89380  0.23530  Biso   1.000  C 
  C3       1.0000 0.43930  0.83890  0.17430  Biso   1.000  C 
  C4       1.0000 0.32090  0.85950  0.13890  Biso   1.000  C 
  C5       1.0000 0.30130  0.82430  0.07970  Biso   1.000  C 
  C6       1.0000 0.41010  0.76790  0.05700  Biso   1.000  C 
  H1       1.0000 0.40040  0.74070  0.01710  Biso   1.000  H 
  C7       1.0000 0.52910  0.75320  0.09340  Biso   1.000  C 
  H2       1.0000 0.60260  0.72480  0.07700  Biso   1.000  H 
  C8       1.0000 0.54600  0.77820  0.15290  Biso   1.000  C 
  O2       1.0000 0.66060  0.75320  0.18490  Biso   1.000  O 
  Co2      1.0000 0.68053  0.70270  0.27269  Biso   1.000  Co
  N2       1.0000 0.53400  0.83930  0.27910  Biso   1.000  N 
  C9       1.0000 0.53660  0.90180  0.33610  Biso   1.000  C 
  H3       1.0000 0.44670  0.92770  0.34090  Biso   1.000  H 
  C10      1.0000 0.59500  0.79300  0.38390  Biso   1.000  C 
  C11      1.0000 0.50130  0.67250  0.38890  Biso   1.000  C 
  H4       1.0000 0.49820  0.60600  0.35580  Biso   1.000  H 
  H5       1.0000 0.53040  0.61950  0.42550  Biso   1.000  H 
  H6       1.0000 0.41410  0.71290  0.38880  Biso   1.000  H 
  N3       1.0000 0.71120  0.73100  0.36440  Biso   1.000  N 
  C12      1.0000 0.81290  0.69700  0.39920  Biso   1.000  C 
  C13      1.0000 0.93330  0.64180  0.38530  Biso   1.000  C 
  C14      1.0000 0.95770  0.64240  0.32790  Biso   1.000  C 
  O3       1.0000 0.87530  0.69280  0.28110  Biso   1.000  O 
  C15      1.0000 0.08190  0.59470  0.31980  Biso   1.000  C 
  O4       1.0000 0.10840  0.60550  0.26440  Biso   1.000  O 
  C16      1.0000 0.23400  0.58700  0.25710  Biso   1.000  C 
  H7       1.0000 0.26590  0.49240  0.27300  Biso   1.000  H 
  H8       1.0000 0.23840  0.59090  0.21540  Biso   1.000  H 
  H9       1.0000 0.28850  0.66420  0.27780  Biso   1.000  H 
  C17      1.0000 0.17700  0.54600  0.36590  Biso   1.000  C 
  H10      1.0000 0.26040  0.51570  0.35920  Biso   1.000  H 
  C18      1.0000 0.14630  0.54310  0.42230  Biso   1.000  C 
  H11      1.0000 0.20820  0.50710  0.45420  Biso   1.000  H 
  C19      1.0000 0.02920  0.59120  0.43110  Biso   1.000  C 
  H12      1.0000 0.01080  0.59090  0.46970  Biso   1.000  H 
  H13      1.0000 0.81050  0.70910  0.43960  Biso   1.000  H 
  C20      1.0000 0.62590  0.87700  0.44030  Biso   1.000  C 
  H14      1.0000 0.55460  0.94450  0.44290  Biso   1.000  H 
  H15      1.0000 0.70740  0.93080  0.44150  Biso   1.000  H 
  H16      1.0000 0.63580  0.80880  0.47330  Biso   1.000  H 
  H17      1.0000 0.58970  0.99160  0.34000  Biso   1.000  H 
  O5       1.0000 0.63520  0.49510  0.25650  Biso   1.000  O 
  C21      1.0000 0.55440  0.39380  0.26470  Biso   1.000  C 
  C22      1.0000 0.56070  0.33890  0.32570  Biso   1.000  C 
  C23      1.0000 0.45400  0.27820  0.34710  Biso   1.000  C 
  O6       1.0000 0.33940  0.25320  0.31510  Biso   1.000  O 
  C24      1.0000 0.47090  0.25320  0.40660  Biso   1.000  C 
  H18      1.0000 0.39740  0.22480  0.42300  Biso   1.000  H 
  C25      1.0000 0.58990  0.26790  0.44300  Biso   1.000  C 
  H19      1.0000 0.59960  0.24070  0.48290  Biso   1.000  H 
  C26      1.0000 0.69870  0.32430  0.42030  Biso   1.000  C 
  H20      1.0000 0.78140  0.33740  0.44470  Biso   1.000  H 
  C27      1.0000 0.67910  0.35950  0.36110  Biso   1.000  C 
  H21      1.0000 0.74950  0.39860  0.34500  Biso   1.000  H 
  H22      1.0000 0.21860  0.83740  0.05530  Biso   1.000  H 
  H23      1.0000 0.25050  0.89860  0.15500  Biso   1.000  H 
  N4       1.0000 0.28880  0.23100  0.13560  Biso   1.000  N 
  C28      1.0000 0.40500  0.29300  0.11610  Biso   1.000  C 
  C29      1.0000 0.37410  0.37700  0.05970  Biso   1.000  C 
  H24      1.0000 0.29260  0.43080  0.05850  Biso   1.000  H 
  H25      1.0000 0.36420  0.30880  0.02670  Biso   1.000  H 
  H26      1.0000 0.44540  0.44450  0.05710  Biso   1.000  H 
  C30      1.0000 0.49870  0.17250  0.11110  Biso   1.000  C 
  H27      1.0000 0.46960  0.11950  0.07450  Biso   1.000  H 
  H28      1.0000 0.58590  0.21290  0.11120  Biso   1.000  H 
  H29      1.0000 0.50180  0.10600  0.14420  Biso   1.000  H 
  C31      1.0000 0.18710  0.19700  0.10080  Biso   1.000  C 
  C32      1.0000 0.06670  0.14180  0.11470  Biso   1.000  C 
  C33      1.0000 0.04230  0.14240  0.17210  Biso   1.000  C 
  O7       1.0000 0.12470  0.19280  0.21890  Biso   1.000  O 
  C34      1.0000 0.91810  0.09470  0.18020  Biso   1.000  C 
  O8       1.0000 0.89160  0.10550  0.23560  Biso   1.000  O 
  C35      1.0000 0.76600  0.08700  0.24290  Biso   1.000  C 
  H30      1.0000 0.71150  0.16420  0.22220  Biso   1.000  H 
  H31      1.0000 0.76160  0.09090  0.28460  Biso   1.000  H 
  H32      1.0000 0.73410  0.99240  0.22700  Biso   1.000  H 
  C36      1.0000 0.82300  0.04600  0.13410  Biso   1.000  C 
  H33      1.0000 0.73960  0.01570  0.14080  Biso   1.000  H 
  C37      1.0000 0.85370  0.04310  0.07770  Biso   1.000  C 
  H34      1.0000 0.79180  0.00710  0.04580  Biso   1.000  H 
  C38      1.0000 0.97080  0.09120  0.06890  Biso   1.000  C 
  H35      1.0000 0.98920  0.09090  0.03030  Biso   1.000  H 
  H36      1.0000 0.18950  0.20910  0.06040  Biso   1.000  H 
  H37      1.0000 0.41030  0.49160  0.16000  Biso   1.000  H 
  H38      1.0000 0.55330  0.42770  0.15910  Biso   1.000  H 
