data_image0
_cell_length_a       13.5835
_cell_length_b       13.5835
_cell_length_c       8.6796
_cell_angle_alpha    90
_cell_angle_beta     90
_cell_angle_gamma    120

_symmetry_space_group_name_H-M    "P 1"
_symmetry_int_tables_number       1

loop_
  _symmetry_equiv_pos_as_xyz
  'x, y, z'

loop_
  _atom_site_label
  _atom_site_occupancy
  _atom_site_fract_x
  _atom_site_fract_y
  _atom_site_fract_z
  _atom_site_thermal_displace_type
  _atom_site_B_iso_or_equiv
  _atom_site_type_symbol
  Fe1      1.0000 0.33330  0.66670  0.00000  Biso   1.000  Fe
  O1       1.0000 0.20160  0.55750  0.86540  Biso   1.000  O 
  C1       1.0000 0.10350  0.52830  0.92620  Biso   1.000  C 
  C2       1.0000 0.00000  0.45290  0.85490  Biso   1.000  C 
  Cl1      1.0000 0.00000  0.39250  0.68150  Biso   1.000  Cl
  C3       1.0000 0.89650  0.42480  0.92620  Biso   1.000  C 
  O2       1.0000 0.79840  0.35590  0.86540  Biso   1.000  O 
  Fe2      1.0000 0.66670  0.33330  0.00000  Biso   1.000  Fe
  O3       1.0000 0.55750  0.20160  0.86540  Biso   1.000  O 
  C4       1.0000 0.52830  0.10350  0.92620  Biso   1.000  C 
  C5       1.0000 0.45290  0.00000  0.85490  Biso   1.000  C 
  C6       1.0000 0.42480  0.89650  0.92620  Biso   1.000  C 
  O4       1.0000 0.35590  0.79840  0.86540  Biso   1.000  O 
  C7       1.0000 0.47170  0.89650  0.07380  Biso   1.000  C 
  O5       1.0000 0.44250  0.79840  0.13460  Biso   1.000  O 
  C8       1.0000 0.54710  0.00000  0.14510  Biso   1.000  C 
  Cl2      1.0000 0.60750  0.00000  0.31850  Biso   1.000  Cl
  C9       1.0000 0.57520  0.10350  0.07380  Biso   1.000  C 
  O6       1.0000 0.64410  0.20160  0.13460  Biso   1.000  O 
  Cl3      1.0000 0.39250  0.00000  0.68150  Biso   1.000  Cl
  O7       1.0000 0.64410  0.44250  0.86540  Biso   1.000  O 
  C10      1.0000 0.57520  0.47170  0.92620  Biso   1.000  C 
  C11      1.0000 0.54710  0.54710  0.85490  Biso   1.000  C 
  C12      1.0000 0.47170  0.57520  0.92620  Biso   1.000  C 
  O8       1.0000 0.44250  0.64410  0.86540  Biso   1.000  O 
  C13      1.0000 0.42480  0.52830  0.07380  Biso   1.000  C 
  O9       1.0000 0.35590  0.55750  0.13460  Biso   1.000  O 
  C14      1.0000 0.45290  0.45290  0.14510  Biso   1.000  C 
  C15      1.0000 0.52830  0.42480  0.07380  Biso   1.000  C 
  O10      1.0000 0.55750  0.35590  0.13460  Biso   1.000  O 
  Cl4      1.0000 0.39250  0.39250  0.31850  Biso   1.000  Cl
  Cl5      1.0000 0.60750  0.60750  0.68150  Biso   1.000  Cl
  O11      1.0000 0.79840  0.44250  0.13460  Biso   1.000  O 
  C16      1.0000 0.89650  0.47170  0.07380  Biso   1.000  C 
  C17      1.0000 0.00000  0.54710  0.14510  Biso   1.000  C 
  Cl6      1.0000 0.00000  0.60750  0.31850  Biso   1.000  Cl
  C18      1.0000 0.10350  0.57520  0.07380  Biso   1.000  C 
  O12      1.0000 0.20160  0.64410  0.13460  Biso   1.000  O 
