data_image0
_cell_length_a       9.879
_cell_length_b       14.594
_cell_length_c       18.211
_cell_angle_alpha    90
_cell_angle_beta     93.58
_cell_angle_gamma    90

_symmetry_space_group_name_H-M    "P 1"
_symmetry_int_tables_number       1

loop_
  _symmetry_equiv_pos_as_xyz
  'x, y, z'

loop_
  _atom_site_label
  _atom_site_occupancy
  _atom_site_fract_x
  _atom_site_fract_y
  _atom_site_fract_z
  _atom_site_thermal_displace_type
  _atom_site_B_iso_or_equiv
  _atom_site_type_symbol
  Hg1      1.0000 0.06000  0.94110  0.62530  Biso   1.000  Hg
  N1       1.0000 0.24200  0.00510  0.64500  Biso   1.000  N 
  C1       1.0000 0.24900  0.08370  0.67910  Biso   1.000  C 
  C2       1.0000 0.39360  0.11950  0.68140  Biso   1.000  C 
  H1       1.0000 0.43280  0.11980  0.73100  Biso   1.000  H 
  H2       1.0000 0.39550  0.18040  0.66160  Biso   1.000  H 
  C3       1.0000 0.46740  0.05640  0.63590  Biso   1.000  C 
  H3       1.0000 0.48590  0.08480  0.59000  Biso   1.000  H 
  H4       1.0000 0.55110  0.03800  0.66120  Biso   1.000  H 
  C4       1.0000 0.37270  0.97220  0.62240  Biso   1.000  C 
  H5       1.0000 0.36690  0.95510  0.57140  Biso   1.000  H 
  H6       1.0000 0.40400  0.92090  0.65170  Biso   1.000  H 
  O1       1.0000 0.15440  0.12550  0.70680  Biso   1.000  O 
  Eu1      1.0000 0.01940  0.25740  0.69020  Biso   1.000  Eu
  O2       1.0000 0.26190  0.32380  0.70480  Biso   1.000  O 
  N2       1.0000 0.23400  0.40310  0.72600  Biso   1.000  N 
  O3       1.0000 0.11440  0.41990  0.73300  Biso   1.000  O 
  O4       1.0000 0.32520  0.46300  0.73670  Biso   1.000  O 
  O5       1.0000 0.14860  0.25630  0.57050  Biso   1.000  O 
  N3       1.0000 0.11570  0.33740  0.54950  Biso   1.000  N 
  O6       1.0000 0.03580  0.37800  0.58800  Biso   1.000  O 
  O7       1.0000 0.16060  0.37330  0.49650  Biso   1.000  O 
  O8       1.0000 0.07280  0.26060  0.81790  Biso   1.000  O 
  C5       1.0000 0.14980  0.30150  0.86320  Biso   1.000  C 
  C6       1.0000 0.29540  0.27380  0.88540  Biso   1.000  C 
  H7       1.0000 0.35160  0.28030  0.84450  Biso   1.000  H 
  H8       1.0000 0.29890  0.21160  0.90250  Biso   1.000  H 
  C7       1.0000 0.34050  0.33810  0.94610  Biso   1.000  C 
  H9       1.0000 0.42410  0.36730  0.93530  Biso   1.000  H 
  H10      1.0000 0.35270  0.30570  0.99180  Biso   1.000  H 
  C8       1.0000 0.23030  0.40770  0.95000  Biso   1.000  C 
  H11      1.0000 0.26100  0.46650  0.93420  Biso   1.000  H 
  H12      1.0000 0.20200  0.41240  0.99930  Biso   1.000  H 
  N4       1.0000 0.12100  0.37580  0.90160  Biso   1.000  N 
  Hg2      1.0000 0.94000  0.44110  0.87470  Biso   1.000  Hg
  N5       1.0000 0.75800  0.50510  0.85500  Biso   1.000  N 
  C9       1.0000 0.62730  0.47220  0.87760  Biso   1.000  C 
  H13      1.0000 0.59600  0.42090  0.84830  Biso   1.000  H 
  H14      1.0000 0.63310  0.45510  0.92860  Biso   1.000  H 
  C10      1.0000 0.53260  0.55640  0.86410  Biso   1.000  C 
  H15      1.0000 0.51410  0.58480  0.91000  Biso   1.000  H 
  H16      1.0000 0.44890  0.53800  0.83880  Biso   1.000  H 
  C11      1.0000 0.60640  0.61950  0.81860  Biso   1.000  C 
  H17      1.0000 0.56720  0.61980  0.76900  Biso   1.000  H 
  H18      1.0000 0.60450  0.68040  0.83840  Biso   1.000  H 
  C12      1.0000 0.75100  0.58370  0.82090  Biso   1.000  C 
  O9       1.0000 0.84560  0.62550  0.79320  Biso   1.000  O 
  Eu2      1.0000 0.98060  0.75740  0.80980  Biso   1.000  Eu
  O10      1.0000 0.92720  0.76060  0.68210  Biso   1.000  O 
  C13      1.0000 0.85020  0.80150  0.63680  Biso   1.000  C 
  C14      1.0000 0.70460  0.77380  0.61460  Biso   1.000  C 
  C15      1.0000 0.65950  0.83810  0.55390  Biso   1.000  C 
  H19      1.0000 0.64730  0.80570  0.50820  Biso   1.000  H 
  H20      1.0000 0.57590  0.86730  0.56470  Biso   1.000  H 
  C16      1.0000 0.76970  0.90770  0.55000  Biso   1.000  C 
  H21      1.0000 0.79800  0.91240  0.50070  Biso   1.000  H 
  H22      1.0000 0.73900  0.96650  0.56580  Biso   1.000  H 
  N6       1.0000 0.87900  0.87580  0.59840  Biso   1.000  N 
  H23      1.0000 0.70110  0.71160  0.59750  Biso   1.000  H 
  H24      1.0000 0.64840  0.78030  0.65550  Biso   1.000  H 
  O11      1.0000 0.88560  0.91990  0.76700  Biso   1.000  O 
  N7       1.0000 0.76600  0.90310  0.77400  Biso   1.000  N 
  O12      1.0000 0.73810  0.82380  0.79520  Biso   1.000  O 
  O13      1.0000 0.67480  0.96300  0.76330  Biso   1.000  O 
  N8       1.0000 0.88430  0.83740  0.95050  Biso   1.000  N 
  O14      1.0000 0.83940  0.87330  0.00350  Biso   1.000  O 
  O15      1.0000 0.96420  0.87800  0.91200  Biso   1.000  O 
  O16      1.0000 0.85140  0.75630  0.92950  Biso   1.000  O 
  C17      1.0000 0.18050  0.65300  0.69510  Biso   1.000  C 
  C18      1.0000 0.30910  0.69370  0.67320  Biso   1.000  C 
  C19      1.0000 0.32100  0.66680  0.59310  Biso   1.000  C 
  H25      1.0000 0.40140  0.63090  0.58800  Biso   1.000  H 
  H26      1.0000 0.32440  0.72060  0.56290  Biso   1.000  H 
  C20      1.0000 0.19610  0.61100  0.57110  Biso   1.000  C 
  H27      1.0000 0.22020  0.54990  0.55720  Biso   1.000  H 
  H28      1.0000 0.14380  0.63950  0.53120  Biso   1.000  H 
  N9       1.0000 0.12110  0.61030  0.63870  Biso   1.000  N 
  Hg3      1.0000 0.93910  0.54680  0.64560  Biso   1.000  Hg
  N10      1.0000 0.75700  0.47970  0.64440  Biso   1.000  N 
  C21      1.0000 0.74760  0.40030  0.67650  Biso   1.000  C 
  C22      1.0000 0.61080  0.35740  0.66290  Biso   1.000  C 
  H29      1.0000 0.61770  0.29480  0.64740  Biso   1.000  H 
  C23      1.0000 0.55140  0.41660  0.60260  Biso   1.000  C 
  H30      1.0000 0.45830  0.43000  0.61060  Biso   1.000  H 
  H31      1.0000 0.55680  0.38650  0.55600  Biso   1.000  H 
  C24      1.0000 0.63190  0.50220  0.60420  Biso   1.000  C 
  H32      1.0000 0.58540  0.55000  0.62870  Biso   1.000  H 
  H33      1.0000 0.64830  0.52140  0.55520  Biso   1.000  H 
  H34      1.0000 0.55920  0.36030  0.70580  Biso   1.000  H 
  O17      1.0000 0.84570  0.36350  0.71600  Biso   1.000  O 
  H35      1.0000 0.30670  0.75910  0.67800  Biso   1.000  H 
  H36      1.0000 0.38430  0.66970  0.70310  Biso   1.000  H 
  O18      1.0000 0.13320  0.66080  0.75540  Biso   1.000  O 
  O19      1.0000 0.15430  0.86350  0.78400  Biso   1.000  O 
  C25      1.0000 0.25240  0.90030  0.82350  Biso   1.000  C 
  C26      1.0000 0.38920  0.85740  0.83710  Biso   1.000  C 
  H37      1.0000 0.44080  0.86030  0.79420  Biso   1.000  H 
  H38      1.0000 0.38230  0.79480  0.85260  Biso   1.000  H 
  C27      1.0000 0.44860  0.91660  0.89740  Biso   1.000  C 
  H39      1.0000 0.44320  0.88650  0.94400  Biso   1.000  H 
  H40      1.0000 0.54170  0.93000  0.88940  Biso   1.000  H 
  C28      1.0000 0.36810  0.00220  0.89580  Biso   1.000  C 
  H41      1.0000 0.41460  0.05000  0.87130  Biso   1.000  H 
  H42      1.0000 0.35170  0.02140  0.94480  Biso   1.000  H 
  N11      1.0000 0.24300  0.97970  0.85560  Biso   1.000  N 
  Hg4      1.0000 0.06090  0.04680  0.85440  Biso   1.000  Hg
  N12      1.0000 0.87890  0.11030  0.86130  Biso   1.000  N 
  C29      1.0000 0.81950  0.15300  0.80490  Biso   1.000  C 
  C30      1.0000 0.69090  0.19370  0.82680  Biso   1.000  C 
  H43      1.0000 0.61570  0.16970  0.79690  Biso   1.000  H 
  H44      1.0000 0.69330  0.25910  0.82200  Biso   1.000  H 
  C31      1.0000 0.67900  0.16680  0.90690  Biso   1.000  C 
  H45      1.0000 0.59860  0.13090  0.91200  Biso   1.000  H 
  C32      1.0000 0.80390  0.11100  0.92890  Biso   1.000  C 
  H46      1.0000 0.77980  0.04990  0.94280  Biso   1.000  H 
  H47      1.0000 0.85620  0.13950  0.96880  Biso   1.000  H 
  H48      1.0000 0.67560  0.22060  0.93710  Biso   1.000  H 
  O20      1.0000 0.86680  0.16080  0.74460  Biso   1.000  O 
  N13      1.0000 0.13780  0.66120  0.94260  Biso   1.000  N 
  O21      1.0000 0.19780  0.63730  0.00020  Biso   1.000  O 
  O22      1.0000 0.16450  0.73660  0.91500  Biso   1.000  O 
  O23      1.0000 0.04640  0.61790  0.91180  Biso   1.000  O 
  O24      1.0000 0.83550  0.23660  0.58500  Biso   1.000  O 
  N14      1.0000 0.86220  0.16120  0.55740  Biso   1.000  N 
  O25      1.0000 0.95360  0.11790  0.58820  Biso   1.000  O 
  O26      1.0000 0.80220  0.13730  0.49980  Biso   1.000  O 
