data_image0
_cell_length_a       7.368
_cell_length_b       28.931
_cell_length_c       7.214
_cell_angle_alpha    90
_cell_angle_beta     90
_cell_angle_gamma    90

_symmetry_space_group_name_H-M    "P 1"
_symmetry_int_tables_number       1

loop_
  _symmetry_equiv_pos_as_xyz
  'x, y, z'

loop_
  _atom_site_label
  _atom_site_occupancy
  _atom_site_fract_x
  _atom_site_fract_y
  _atom_site_fract_z
  _atom_site_thermal_displace_type
  _atom_site_B_iso_or_equiv
  _atom_site_type_symbol
  Ag1      1.0000 0.50777  0.91600  0.20980  Biso   1.000  Ag
  N1       1.0000 0.20570  0.91790  0.26060  Biso   1.000  N 
  C1       1.0000 0.11120  0.88060  0.27570  Biso   1.000  C 
  C2       1.0000 0.17380  0.83040  0.28560  Biso   1.000  C 
  C3       1.0000 0.01630  0.80449  0.18810  Biso   1.000  C 
  C4       1.0000 0.02520  0.75130  0.20570  Biso   1.000  C 
  H1       1.0000 0.12150  0.73940  0.12510  Biso   1.000  H 
  H2       1.0000 0.05120  0.74290  0.33450  Biso   1.000  H 
  H3       1.0000 0.90850  0.73800  0.16850  Biso   1.000  H 
  C5       1.0000 0.86170  0.82740  0.31290  Biso   1.000  C 
  C6       1.0000 0.66470  0.81430  0.26880  Biso   1.000  C 
  H4       1.0000 0.63650  0.82290  0.14060  Biso   1.000  H 
  H5       1.0000 0.64900  0.78080  0.28420  Biso   1.000  H 
  H6       1.0000 0.58280  0.83060  0.35330  Biso   1.000  H 
  C7       1.0000 0.91210  0.87710  0.28090  Biso   1.000  C 
  N2       1.0000 0.81030  0.91510  0.27440  Biso   1.000  N 
  C8       1.0000 0.90770  0.95650  0.26100  Biso   1.000  C 
  C9       1.0000 0.80830  0.99920  0.26150  Biso   1.000  C 
  H7       1.0000 0.67950  0.99870  0.25890  Biso   1.000  H 
  C10      1.0000 0.89860  0.04080  0.26570  Biso   1.000  C 
  N3       1.0000 0.79430  0.08210  0.26060  Biso   1.000  N 
  C11      1.0000 0.88880  0.11940  0.27570  Biso   1.000  C 
  C12      1.0000 0.82620  0.16960  0.28560  Biso   1.000  C 
  C13      1.0000 0.98370  0.19551  0.18810  Biso   1.000  C 
  C14      1.0000 0.97480  0.24870  0.20570  Biso   1.000  C 
  H8       1.0000 0.94880  0.25710  0.33450  Biso   1.000  H 
  H9       1.0000 0.87850  0.26060  0.12510  Biso   1.000  H 
  H10      1.0000 0.09150  0.26200  0.16850  Biso   1.000  H 
  C15      1.0000 0.13830  0.17260  0.31290  Biso   1.000  C 
  C16      1.0000 0.33530  0.18570  0.26880  Biso   1.000  C 
  H11      1.0000 0.36350  0.17710  0.14060  Biso   1.000  H 
  H12      1.0000 0.41720  0.16940  0.35330  Biso   1.000  H 
  H13      1.0000 0.35100  0.21920  0.28420  Biso   1.000  H 
  C17      1.0000 0.08790  0.12290  0.28090  Biso   1.000  C 
  N4       1.0000 0.18970  0.08490  0.27440  Biso   1.000  N 
  C18      1.0000 0.09230  0.04350  0.26100  Biso   1.000  C 
  C19      1.0000 0.19170  0.00080  0.26150  Biso   1.000  C 
  H14      1.0000 0.32050  0.00130  0.25890  Biso   1.000  H 
  C20      1.0000 0.10140  0.95920  0.26570  Biso   1.000  C 
  Ag2      1.0000 0.49223  0.08400  0.20980  Biso   1.000  Ag
  O1       1.0000 0.59550  0.12740  0.90450  Biso   1.000  O 
  N5       1.0000 0.47960  0.11660  0.80150  Biso   1.000  N 
  O2       1.0000 0.47930  0.12170  0.63210  Biso   1.000  O 
  O3       1.0000 0.33490  0.10700  0.87140  Biso   1.000  O 
  C21      1.0000 0.07100  0.18300  0.50790  Biso   1.000  C 
  H15      1.0000 0.11290  0.15900  0.59600  Biso   1.000  H 
  H16      1.0000 0.11590  0.21340  0.55020  Biso   1.000  H 
  C22      1.0000 0.85640  0.18300  0.49360  Biso   1.000  C 
  H17      1.0000 0.80180  0.15990  0.57800  Biso   1.000  H 
  H18      1.0000 0.80540  0.21380  0.52160  Biso   1.000  H 
  C23      1.0000 0.99330  0.18340  0.98300  Biso   1.000  C 
  H19      1.0000 0.98040  0.14990  0.96770  Biso   1.000  H 
  H20      1.0000 0.89510  0.19910  0.91660  Biso   1.000  H 
  H21      1.0000 0.11050  0.19330  0.93260  Biso   1.000  H 
  H22      1.0000 0.70210  0.17580  0.23540  Biso   1.000  H 
  C24      1.0000 0.92900  0.81700  0.50790  Biso   1.000  C 
  H23      1.0000 0.88410  0.78660  0.55020  Biso   1.000  H 
  H24      1.0000 0.88710  0.84100  0.59600  Biso   1.000  H 
  C25      1.0000 0.14360  0.81700  0.49360  Biso   1.000  C 
  H25      1.0000 0.19460  0.78620  0.52160  Biso   1.000  H 
  H26      1.0000 0.19820  0.84010  0.57800  Biso   1.000  H 
  C26      1.0000 0.00670  0.81660  0.98300  Biso   1.000  C 
  H27      1.0000 0.10490  0.80090  0.91660  Biso   1.000  H 
  H28      1.0000 0.01960  0.85010  0.96770  Biso   1.000  H 
  H29      1.0000 0.88950  0.80670  0.93260  Biso   1.000  H 
  H30      1.0000 0.29790  0.82420  0.23540  Biso   1.000  H 
  O4       1.0000 0.40450  0.87260  0.90450  Biso   1.000  O 
  N6       1.0000 0.52040  0.88340  0.80150  Biso   1.000  N 
  O5       1.0000 0.52070  0.87830  0.63210  Biso   1.000  O 
  O6       1.0000 0.66510  0.89300  0.87140  Biso   1.000  O 
