data_image0
_cell_length_a       8.62
_cell_length_b       11.0504
_cell_length_c       10.5916
_cell_angle_alpha    90
_cell_angle_beta     93.532
_cell_angle_gamma    90

_symmetry_space_group_name_H-M    "P 1"
_symmetry_int_tables_number       1

loop_
  _symmetry_equiv_pos_as_xyz
  'x, y, z'

loop_
  _atom_site_label
  _atom_site_occupancy
  _atom_site_fract_x
  _atom_site_fract_y
  _atom_site_fract_z
  _atom_site_thermal_displace_type
  _atom_site_B_iso_or_equiv
  _atom_site_type_symbol
  Sn1      1.0000 0.19995  0.21816  0.33431  Biso   1.000  Sn
  C1       1.0000 0.14730  0.37390  0.44760  Biso   1.000  C 
  H1       1.0000 0.15460  0.44600  0.39780  Biso   1.000  H 
  H2       1.0000 0.04390  0.36650  0.47550  Biso   1.000  H 
  H3       1.0000 0.22010  0.37830  0.51980  Biso   1.000  H 
  C2       1.0000 0.34550  0.08310  0.41780  Biso   1.000  C 
  H4       1.0000 0.28300  0.02150  0.45360  Biso   1.000  H 
  H5       1.0000 0.41300  0.11850  0.48330  Biso   1.000  H 
  H6       1.0000 0.40670  0.04790  0.35470  Biso   1.000  H 
  C3       1.0000 0.17350  0.22350  0.13850  Biso   1.000  C 
  H7       1.0000 0.11990  0.15220  0.10800  Biso   1.000  H 
  H8       1.0000 0.11450  0.29390  0.11250  Biso   1.000  H 
  H9       1.0000 0.27400  0.22710  0.10420  Biso   1.000  H 
  N1       1.0000 0.45030  0.33080  0.29830  Biso   1.000  N 
  C4       1.0000 0.58960  0.29620  0.29870  Biso   1.000  C 
  H10      1.0000 0.62230  0.22140  0.33070  Biso   1.000  H 
  S1       1.0000 0.71060  0.39440  0.23740  Biso   1.000  S 
  C5       1.0000 0.55360  0.48810  0.20670  Biso   1.000  C 
  S2       1.0000 0.56930  0.62400  0.13060  Biso   1.000  S 
  Sn2      1.0000 0.30005  0.71816  0.16569  Biso   1.000  Sn
  N2       1.0000 0.04970  0.83080  0.20170  Biso   1.000  N 
  C6       1.0000 0.91040  0.79620  0.20130  Biso   1.000  C 
  H11      1.0000 0.87770  0.72140  0.16930  Biso   1.000  H 
  S3       1.0000 0.78940  0.89440  0.26260  Biso   1.000  S 
  C7       1.0000 0.94640  0.98810  0.29330  Biso   1.000  C 
  S4       1.0000 0.93070  0.12400  0.36940  Biso   1.000  S 
  N3       1.0000 0.07250  0.94390  0.25470  Biso   1.000  N 
  C8       1.0000 0.15450  0.58310  0.08220  Biso   1.000  C 
  H12      1.0000 0.21700  0.52150  0.04640  Biso   1.000  H 
  H13      1.0000 0.09330  0.54790  0.14530  Biso   1.000  H 
  H14      1.0000 0.08700  0.61850  0.01670  Biso   1.000  H 
  C9       1.0000 0.32650  0.72350  0.36150  Biso   1.000  C 
  H15      1.0000 0.22600  0.72710  0.39580  Biso   1.000  H 
  H16      1.0000 0.38010  0.65220  0.39200  Biso   1.000  H 
  H17      1.0000 0.38550  0.79390  0.38750  Biso   1.000  H 
  C10      1.0000 0.35270  0.87390  0.05240  Biso   1.000  C 
  H18      1.0000 0.34540  0.94600  0.10220  Biso   1.000  H 
  H19      1.0000 0.45610  0.86650  0.02450  Biso   1.000  H 
  H20      1.0000 0.27990  0.87830  0.98020  Biso   1.000  H 
  N4       1.0000 0.42750  0.44390  0.24530  Biso   1.000  N 
