data_image0
_cell_length_a       11.6605
_cell_length_b       12.148
_cell_length_c       15.5343
_cell_angle_alpha    90
_cell_angle_beta     106.593
_cell_angle_gamma    90

_symmetry_space_group_name_H-M    "P 1"
_symmetry_int_tables_number       1

loop_
  _symmetry_equiv_pos_as_xyz
  'x, y, z'

loop_
  _atom_site_label
  _atom_site_occupancy
  _atom_site_fract_x
  _atom_site_fract_y
  _atom_site_fract_z
  _atom_site_thermal_displace_type
  _atom_site_B_iso_or_equiv
  _atom_site_type_symbol
  Fe1      1.0000 0.18029  0.72987  0.14749  Biso   1.000  Fe
  N1       1.0000 0.06570  0.78140  0.02560  Biso   1.000  N 
  C1       1.0000 0.97220  0.72410  0.97570  Biso   1.000  C 
  C2       1.0000 0.90950  0.75630  0.88950  Biso   1.000  C 
  C3       1.0000 0.94300  0.84940  0.85440  Biso   1.000  C 
  H1       1.0000 0.90040  0.87330  0.79730  Biso   1.000  H 
  C4       1.0000 0.04210  0.90880  0.90490  Biso   1.000  C 
  C5       1.0000 0.09810  0.87240  0.99010  Biso   1.000  C 
  C6       1.0000 0.20430  0.93160  0.05340  Biso   1.000  C 
  H2       1.0000 0.17770  0.97780  0.09490  Biso   1.000  H 
  H3       1.0000 0.24390  0.97770  0.01960  Biso   1.000  H 
  N2       1.0000 0.28770  0.84510  0.10320  Biso   1.000  N 
  C7       1.0000 0.35220  0.79280  0.04330  Biso   1.000  C 
  H4       1.0000 0.43770  0.80080  0.07050  Biso   1.000  H 
  C8       1.0000 0.32370  0.67270  0.02550  Biso   1.000  C 
  N3       1.0000 0.25530  0.62430  0.07200  Biso   1.000  N 
  C9       1.0000 0.23650  0.51560  0.06000  Biso   1.000  C 
  H5       1.0000 0.19300  0.48030  0.09360  Biso   1.000  H 
  C10      1.0000 0.27730  0.45380  0.00170  Biso   1.000  C 
  H6       1.0000 0.26090  0.37890  0.99510  Biso   1.000  H 
  C11      1.0000 0.34360  0.50510  0.95270  Biso   1.000  C 
  H7       1.0000 0.37080  0.46580  0.91100  Biso   1.000  H 
  C12      1.0000 0.36810  0.61330  0.96630  Biso   1.000  C 
  H8       1.0000 0.41540  0.64830  0.93540  Biso   1.000  H 
  H9       1.0000 0.33170  0.83180  0.98640  Biso   1.000  H 
  C13      1.0000 0.37560  0.88990  0.18500  Biso   1.000  C 
  H10      1.0000 0.44180  0.92440  0.16900  Biso   1.000  H 
  H11      1.0000 0.33770  0.94480  0.21310  Biso   1.000  H 
  C14      1.0000 0.42020  0.79630  0.24830  Biso   1.000  C 
  N4       1.0000 0.33980  0.71640  0.24950  Biso   1.000  N 
  C15      1.0000 0.37020  0.63510  0.30940  Biso   1.000  C 
  H12      1.0000 0.31450  0.58100  0.31130  Biso   1.000  H 
  C16      1.0000 0.48490  0.63060  0.36910  Biso   1.000  C 
  H13      1.0000 0.50460  0.57380  0.41100  Biso   1.000  H 
  C17      1.0000 0.56770  0.70730  0.36710  Biso   1.000  C 
  C18      1.0000 0.53740  0.79270  0.30590  Biso   1.000  C 
  H14      1.0000 0.59310  0.84640  0.30300  Biso   1.000  H 
  H15      1.0000 0.64450  0.70290  0.40640  Biso   1.000  H 
  H16      1.0000 0.06910  0.97090  0.88150  Biso   1.000  H 
  H17      1.0000 0.84510  0.71470  0.85600  Biso   1.000  H 
  H18      1.0000 0.94850  0.66080  0.99960  Biso   1.000  H 
  N5       1.0000 0.07990  0.60710  0.17360  Biso   1.000  N 
  C19      1.0000 0.01630  0.53540  0.17740  Biso   1.000  C 
  N6       1.0000 0.93940  0.45510  0.16870  Biso   1.000  N 
  C20      1.0000 0.91450  0.39960  0.23290  Biso   1.000  C 
  N7       1.0000 0.88070  0.34430  0.28100  Biso   1.000  N 
  Fe2      1.0000 0.81971  0.22987  0.35251  Biso   1.000  Fe
  N8       1.0000 0.66020  0.21640  0.25050  Biso   1.000  N 
  C21      1.0000 0.62980  0.13510  0.19060  Biso   1.000  C 
  H19      1.0000 0.68550  0.08100  0.18870  Biso   1.000  H 
  C22      1.0000 0.51510  0.13060  0.13090  Biso   1.000  C 
  C23      1.0000 0.43230  0.20730  0.13290  Biso   1.000  C 
  H20      1.0000 0.35550  0.20290  0.09360  Biso   1.000  H 
  C24      1.0000 0.46260  0.29270  0.19410  Biso   1.000  C 
  H21      1.0000 0.40690  0.34640  0.19700  Biso   1.000  H 
  C25      1.0000 0.57980  0.29630  0.25170  Biso   1.000  C 
  C26      1.0000 0.62440  0.38990  0.31500  Biso   1.000  C 
  H22      1.0000 0.55820  0.42440  0.33100  Biso   1.000  H 
  H23      1.0000 0.66230  0.44480  0.28690  Biso   1.000  H 
  N9       1.0000 0.71230  0.34510  0.39680  Biso   1.000  N 
  C27      1.0000 0.64780  0.29280  0.45670  Biso   1.000  C 
  H24      1.0000 0.56230  0.30080  0.42950  Biso   1.000  H 
  H25      1.0000 0.66830  0.33180  0.51360  Biso   1.000  H 
  C28      1.0000 0.67630  0.17270  0.47450  Biso   1.000  C 
  N10      1.0000 0.74470  0.12430  0.42800  Biso   1.000  N 
  C29      1.0000 0.76350  0.01560  0.44000  Biso   1.000  C 
  H26      1.0000 0.80700  0.98030  0.40640  Biso   1.000  H 
  C30      1.0000 0.72270  0.95380  0.49830  Biso   1.000  C 
  H27      1.0000 0.73910  0.87890  0.50490  Biso   1.000  H 
  C31      1.0000 0.65640  0.00510  0.54730  Biso   1.000  C 
  C32      1.0000 0.63190  0.11330  0.53370  Biso   1.000  C 
  H28      1.0000 0.58460  0.14830  0.56460  Biso   1.000  H 
  H29      1.0000 0.62920  0.96580  0.58900  Biso   1.000  H 
  C33      1.0000 0.79570  0.43160  0.44660  Biso   1.000  C 
  H30      1.0000 0.75610  0.47770  0.48040  Biso   1.000  H 
  H31      1.0000 0.82230  0.47780  0.40510  Biso   1.000  H 
  C34      1.0000 0.90190  0.37240  0.50990  Biso   1.000  C 
  N11      1.0000 0.93430  0.28140  0.47440  Biso   1.000  N 
  C35      1.0000 0.02780  0.22410  0.52430  Biso   1.000  C 
  H32      1.0000 0.05150  0.16080  0.50040  Biso   1.000  H 
  C36      1.0000 0.09050  0.25630  0.61050  Biso   1.000  C 
  H33      1.0000 0.15490  0.21470  0.64400  Biso   1.000  H 
  C37      1.0000 0.05700  0.34940  0.64560  Biso   1.000  C 
  H34      1.0000 0.09960  0.37330  0.70270  Biso   1.000  H 
  C38      1.0000 0.95790  0.40880  0.59510  Biso   1.000  C 
  H35      1.0000 0.93090  0.47090  0.61850  Biso   1.000  H 
  H36      1.0000 0.49540  0.07380  0.08900  Biso   1.000  H 
  N12      1.0000 0.92010  0.10710  0.32640  Biso   1.000  N 
  C39      1.0000 0.98370  0.03540  0.32260  Biso   1.000  C 
  N13      1.0000 0.06060  0.95510  0.33130  Biso   1.000  N 
  C40      1.0000 0.08550  0.89960  0.26710  Biso   1.000  C 
  N14      1.0000 0.11930  0.84430  0.21900  Biso   1.000  N 
