data_image0
_cell_length_a       13.8227
_cell_length_b       10.0792
_cell_length_c       16.0224
_cell_angle_alpha    90
_cell_angle_beta     90
_cell_angle_gamma    90

_symmetry_space_group_name_H-M    "P 1"
_symmetry_int_tables_number       1

loop_
  _symmetry_equiv_pos_as_xyz
  'x, y, z'

loop_
  _atom_site_label
  _atom_site_occupancy
  _atom_site_fract_x
  _atom_site_fract_y
  _atom_site_fract_z
  _atom_site_thermal_displace_type
  _atom_site_B_iso_or_equiv
  _atom_site_type_symbol
  Ag1      1.0000 0.44942  0.75000  0.72608  Biso   1.000  Ag
  I1       1.0000 0.33831  0.97567  0.69429  Biso   1.000  I 
  Ag2      1.0000 0.26482  0.75000  0.59889  Biso   1.000  Ag
  I2       1.0000 0.29363  0.75000  0.42675  Biso   1.000  I 
  I3       1.0000 0.33831  0.52433  0.69429  Biso   1.000  I 
  I4       1.0000 0.05826  0.75000  0.62859  Biso   1.000  I 
  Ag3      1.0000 0.94942  0.75000  0.77392  Biso   1.000  Ag
  Ag4      1.0000 0.76482  0.75000  0.90111  Biso   1.000  Ag
  I5       1.0000 0.55826  0.75000  0.87141  Biso   1.000  I 
  I6       1.0000 0.83831  0.97567  0.80571  Biso   1.000  I 
  I7       1.0000 0.83831  0.52433  0.80571  Biso   1.000  I 
  I8       1.0000 0.79363  0.75000  0.07325  Biso   1.000  I 
  N1       1.0000 0.07940  0.75000  0.87540  Biso   1.000  N 
  C1       1.0000 0.13710  0.86820  0.86990  Biso   1.000  C 
  H1       1.0000 0.16550  0.87350  0.81460  Biso   1.000  H 
  H2       1.0000 0.09560  0.94500  0.87730  Biso   1.000  H 
  C2       1.0000 0.21960  0.87210  0.93660  Biso   1.000  C 
  H3       1.0000 0.28230  0.87690  0.90960  Biso   1.000  H 
  H4       1.0000 0.21220  0.94890  0.97250  Biso   1.000  H 
  N2       1.0000 0.21160  0.75000  0.98530  Biso   1.000  N 
  C3       1.0000 0.21960  0.62790  0.93660  Biso   1.000  C 
  H5       1.0000 0.28230  0.62310  0.90960  Biso   1.000  H 
  H6       1.0000 0.21220  0.55110  0.97250  Biso   1.000  H 
  C4       1.0000 0.13710  0.63180  0.86990  Biso   1.000  C 
  H7       1.0000 0.16550  0.62650  0.81460  Biso   1.000  H 
  H8       1.0000 0.09560  0.55500  0.87730  Biso   1.000  H 
  C5       1.0000 0.11710  0.75000  0.02370  Biso   1.000  C 
  H9       1.0000 0.11050  0.67210  0.05880  Biso   1.000  H 
  H10      1.0000 0.11050  0.82790  0.05880  Biso   1.000  H 
  C6       1.0000 0.03660  0.75000  0.95700  Biso   1.000  C 
  H11      1.0000 0.99620  0.82800  0.96380  Biso   1.000  H 
  H12      1.0000 0.99620  0.67200  0.96380  Biso   1.000  H 
  H13      1.0000 0.26298  0.75000  0.03056  Biso   1.000  H 
  N3       1.0000 0.57940  0.75000  0.62460  Biso   1.000  N 
  C7       1.0000 0.53660  0.75000  0.54300  Biso   1.000  C 
  C8       1.0000 0.61710  0.75000  0.47630  Biso   1.000  C 
  H14      1.0000 0.61050  0.67210  0.44120  Biso   1.000  H 
  H15      1.0000 0.61050  0.82790  0.44120  Biso   1.000  H 
  N4       1.0000 0.71160  0.75000  0.51470  Biso   1.000  N 
  H16      1.0000 0.76298  0.75000  0.46944  Biso   1.000  H 
  C9       1.0000 0.71960  0.87210  0.56340  Biso   1.000  C 
  H17      1.0000 0.71220  0.94890  0.52750  Biso   1.000  H 
  H18      1.0000 0.78230  0.87690  0.59040  Biso   1.000  H 
  C10      1.0000 0.63710  0.86820  0.63010  Biso   1.000  C 
  H19      1.0000 0.59560  0.94500  0.62270  Biso   1.000  H 
  H20      1.0000 0.66550  0.87350  0.68540  Biso   1.000  H 
  C11      1.0000 0.71960  0.62790  0.56340  Biso   1.000  C 
  H21      1.0000 0.71220  0.55110  0.52750  Biso   1.000  H 
  H22      1.0000 0.78230  0.62310  0.59040  Biso   1.000  H 
  C12      1.0000 0.63710  0.63180  0.63010  Biso   1.000  C 
  H23      1.0000 0.59560  0.55500  0.62270  Biso   1.000  H 
  H24      1.0000 0.66550  0.62650  0.68540  Biso   1.000  H 
  H25      1.0000 0.49620  0.82800  0.53620  Biso   1.000  H 
  H26      1.0000 0.49620  0.67200  0.53620  Biso   1.000  H 
