data_image0
_cell_length_a       9.214
_cell_length_b       21.826
_cell_length_c       9.79
_cell_angle_alpha    90
_cell_angle_beta     109.282
_cell_angle_gamma    90

_symmetry_space_group_name_H-M    "P 1"
_symmetry_int_tables_number       1

loop_
  _symmetry_equiv_pos_as_xyz
  'x, y, z'

loop_
  _atom_site_label
  _atom_site_occupancy
  _atom_site_fract_x
  _atom_site_fract_y
  _atom_site_fract_z
  _atom_site_thermal_displace_type
  _atom_site_B_iso_or_equiv
  _atom_site_type_symbol
  Cu1      1.0000 0.25805  0.26321  0.46969  Biso   1.000  Cu
  N1       1.0000 0.16740  0.17570  0.40100  Biso   1.000  N 
  C1       1.0000 0.04010  0.18845  0.26390  Biso   1.000  C 
  H1       1.0000 0.08240  0.19760  0.18760  Biso   1.000  H 
  C2       1.0000 0.94670  0.24158  0.28390  Biso   1.000  C 
  H2       1.0000 0.88650  0.22980  0.34440  Biso   1.000  H 
  H3       1.0000 0.87690  0.25510  0.19100  Biso   1.000  H 
  N2       1.0000 0.05340  0.29108  0.35300  Biso   1.000  N 
  C3       1.0000 0.01380  0.34656  0.31880  Biso   1.000  C 
  C4       1.0000 0.10390  0.39984  0.37900  Biso   1.000  C 
  C5       1.0000 0.03890  0.45769  0.32670  Biso   1.000  C 
  C6       1.0000 0.11150  0.50981  0.38410  Biso   1.000  C 
  H4       1.0000 0.06790  0.54740  0.34820  Biso   1.000  H 
  C7       1.0000 0.25110  0.50798  0.49660  Biso   1.000  C 
  H5       1.0000 0.29980  0.54440  0.53540  Biso   1.000  H 
  C8       1.0000 0.31790  0.45288  0.55100  Biso   1.000  C 
  O1       1.0000 0.45360  0.44701  0.66330  Biso   1.000  O 
  C9       1.0000 0.51730  0.50041  0.74690  Biso   1.000  C 
  C10      1.0000 0.65020  0.48070  0.87380  Biso   1.000  C 
  H6       1.0000 0.61630  0.45100  0.92910  Biso   1.000  H 
  H7       1.0000 0.72770  0.46280  0.84060  Biso   1.000  H 
  H8       1.0000 0.69230  0.51560  0.93350  Biso   1.000  H 
  H9       1.0000 0.44030  0.52020  0.77940  Biso   1.000  H 
  H10      1.0000 0.55120  0.52930  0.68850  Biso   1.000  H 
  C11      1.0000 0.24820  0.39589  0.48940  Biso   1.000  C 
  O2       1.0000 0.32023  0.34527  0.54001  Biso   1.000  O 
  H11      1.0000 0.94510  0.45960  0.25210  Biso   1.000  H 
  H12      1.0000 0.91830  0.35300  0.24890  Biso   1.000  H 
  H13      1.0000 0.97510  0.15250  0.23550  Biso   1.000  H 
  C12      1.0000 0.10610  0.14745  0.50800  Biso   1.000  C 
  H14      1.0000 0.03390  0.17490  0.52760  Biso   1.000  H 
  H15      1.0000 0.05560  0.10970  0.47010  Biso   1.000  H 
  H16      1.0000 0.18920  0.13950  0.59600  Biso   1.000  H 
  C13      1.0000 0.27730  0.13302  0.37080  Biso   1.000  C 
  H17      1.0000 0.36080  0.12520  0.45840  Biso   1.000  H 
  H18      1.0000 0.31650  0.15090  0.30040  Biso   1.000  H 
  H19      1.0000 0.22600  0.09520  0.33370  Biso   1.000  H 
  O3       1.0000 0.45183  0.22776  0.60245  Biso   1.000  O 
  C14      1.0000 0.44420  0.21658  0.72930  Biso   1.000  C 
  C15      1.0000 0.57490  0.18138  0.83140  Biso   1.000  C 
  H20      1.0000 0.53700  0.15600  0.89230  Biso   1.000  H 
  H21      1.0000 0.62150  0.15610  0.77710  Biso   1.000  H 
  H22      1.0000 0.64990  0.20950  0.89020  Biso   1.000  H 
  O4       1.0000 0.33420  0.23328  0.76538  Biso   1.000  O 
  Cu2      1.0000 0.25805  0.23679  0.96969  Biso   1.000  Cu
  N3       1.0000 0.05340  0.20892  0.85300  Biso   1.000  N 
  C16      1.0000 0.01380  0.15344  0.81880  Biso   1.000  C 
  C17      1.0000 0.10390  0.10016  0.87900  Biso   1.000  C 
  C18      1.0000 0.03890  0.04231  0.82670  Biso   1.000  C 
  C19      1.0000 0.11150  0.99019  0.88410  Biso   1.000  C 
  H23      1.0000 0.06790  0.95260  0.84820  Biso   1.000  H 
  C20      1.0000 0.25110  0.99202  0.99660  Biso   1.000  C 
  C21      1.0000 0.31790  0.04712  0.05100  Biso   1.000  C 
  C22      1.0000 0.24820  0.10411  0.98940  Biso   1.000  C 
  O5       1.0000 0.32023  0.15473  0.04001  Biso   1.000  O 
  O6       1.0000 0.45360  0.05299  0.16330  Biso   1.000  O 
  C23      1.0000 0.51730  0.99959  0.24690  Biso   1.000  C 
  H24      1.0000 0.44030  0.97980  0.27940  Biso   1.000  H 
  H25      1.0000 0.55120  0.97070  0.18850  Biso   1.000  H 
  C24      1.0000 0.65020  0.01930  0.37380  Biso   1.000  C 
  H26      1.0000 0.72770  0.03720  0.34060  Biso   1.000  H 
  H27      1.0000 0.61630  0.04900  0.42910  Biso   1.000  H 
  H28      1.0000 0.69230  0.98440  0.43350  Biso   1.000  H 
  H29      1.0000 0.29980  0.95560  0.03540  Biso   1.000  H 
  H30      1.0000 0.94510  0.04040  0.75210  Biso   1.000  H 
  H31      1.0000 0.91830  0.14700  0.74890  Biso   1.000  H 
  C25      1.0000 0.94670  0.25842  0.78390  Biso   1.000  C 
  H32      1.0000 0.87690  0.24490  0.69100  Biso   1.000  H 
  H33      1.0000 0.88650  0.27020  0.84440  Biso   1.000  H 
  C26      1.0000 0.04010  0.31155  0.76390  Biso   1.000  C 
  H34      1.0000 0.08240  0.30240  0.68760  Biso   1.000  H 
  H35      1.0000 0.97510  0.34750  0.73550  Biso   1.000  H 
  N4       1.0000 0.16740  0.32430  0.90100  Biso   1.000  N 
  C27      1.0000 0.27730  0.36698  0.87080  Biso   1.000  C 
  H36      1.0000 0.22600  0.40480  0.83370  Biso   1.000  H 
  H37      1.0000 0.31650  0.34910  0.80040  Biso   1.000  H 
  H38      1.0000 0.36080  0.37480  0.95840  Biso   1.000  H 
  C28      1.0000 0.10610  0.35255  0.00800  Biso   1.000  C 
  H39      1.0000 0.18920  0.36050  0.09600  Biso   1.000  H 
  H40      1.0000 0.03390  0.32510  0.02760  Biso   1.000  H 
  H41      1.0000 0.05560  0.39030  0.97010  Biso   1.000  H 
  O7       1.0000 0.45183  0.27224  0.10245  Biso   1.000  O 
  C29      1.0000 0.44420  0.28342  0.22930  Biso   1.000  C 
  C30      1.0000 0.57490  0.31862  0.33140  Biso   1.000  C 
  H42      1.0000 0.62150  0.34390  0.27710  Biso   1.000  H 
  H43      1.0000 0.64990  0.29050  0.39020  Biso   1.000  H 
  H44      1.0000 0.53700  0.34400  0.39230  Biso   1.000  H 
  O8       1.0000 0.33420  0.26672  0.26538  Biso   1.000  O 
