data_image0
_cell_length_a       15.206
_cell_length_b       10.616
_cell_length_c       19.772
_cell_angle_alpha    90
_cell_angle_beta     105.03
_cell_angle_gamma    90

_symmetry_space_group_name_H-M    "P 1"
_symmetry_int_tables_number       1

loop_
  _symmetry_equiv_pos_as_xyz
  'x, y, z'

loop_
  _atom_site_label
  _atom_site_occupancy
  _atom_site_fract_x
  _atom_site_fract_y
  _atom_site_fract_z
  _atom_site_thermal_displace_type
  _atom_site_B_iso_or_equiv
  _atom_site_type_symbol
  Gd1      1.0000 0.00000  0.64778  0.25000  Biso   1.000  Gd
  O1       1.0000 0.95370  0.46810  0.30420  Biso   1.000  O 
  C1       1.0000 0.96120  0.35300  0.29750  Biso   1.000  C 
  C2       1.0000 0.92400  0.27320  0.34780  Biso   1.000  C 
  F1       1.0000 0.84070  0.29700  0.34230  Biso   1.000  F 
  F2       1.0000 0.96530  0.29490  0.41190  Biso   1.000  F 
  F3       1.0000 0.92550  0.15570  0.33680  Biso   1.000  F 
  C3       1.0000 0.00000  0.29030  0.25000  Biso   1.000  C 
  H1       1.0000 0.00000  0.20260  0.25000  Biso   1.000  H 
  C4       1.0000 0.03880  0.35300  0.20250  Biso   1.000  C 
  C5       1.0000 0.07600  0.27320  0.15220  Biso   1.000  C 
  F4       1.0000 0.03470  0.29490  0.08810  Biso   1.000  F 
  F5       1.0000 0.15930  0.29700  0.15770  Biso   1.000  F 
  F6       1.0000 0.07450  0.15570  0.16320  Biso   1.000  F 
  O2       1.0000 0.04630  0.46810  0.19580  Biso   1.000  O 
  O3       1.0000 0.90330  0.81820  0.20000  Biso   1.000  O 
  C6       1.0000 0.85940  0.90160  0.22430  Biso   1.000  C 
  C7       1.0000 0.81390  0.99570  0.16220  Biso   1.000  C 
  F7       1.0000 0.74010  0.94530  0.12510  Biso   1.000  F 
  F8       1.0000 0.84460  0.04400  0.11850  Biso   1.000  F 
  F9       1.0000 0.80320  0.07700  0.19960  Biso   1.000  F 
  C8       1.0000 0.84700  0.91560  0.28790  Biso   1.000  C 
  H2       1.0000 0.80960  0.97950  0.29670  Biso   1.000  H 
  C9       1.0000 0.89290  0.82890  0.34500  Biso   1.000  C 
  C10      1.0000 0.87950  0.86530  0.41150  Biso   1.000  C 
  F10      1.0000 0.84350  0.77970  0.43960  Biso   1.000  F 
  F11      1.0000 0.93500  0.80200  0.46950  Biso   1.000  F 
  F12      1.0000 0.88460  0.97460  0.44080  Biso   1.000  F 
  O4       1.0000 0.93910  0.73390  0.33870  Biso   1.000  O 
  O5       1.0000 0.86600  0.56110  0.17280  Biso   1.000  O 
  N1       1.0000 0.79400  0.57900  0.12170  Biso   1.000  N 
  C11      1.0000 0.71280  0.61240  0.12700  Biso   1.000  C 
  N2       1.0000 0.65280  0.61020  0.06270  Biso   1.000  N 
  C12      1.0000 0.69680  0.55030  0.01000  Biso   1.000  C 
  C13      1.0000 0.66820  0.40940  0.00740  Biso   1.000  C 
  H3       1.0000 0.69030  0.37270  0.05300  Biso   1.000  H 
  H4       1.0000 0.69380  0.36520  0.97460  Biso   1.000  H 
  H5       1.0000 0.60300  0.40320  0.99300  Biso   1.000  H 
  C14      1.0000 0.65860  0.60690  0.93770  Biso   1.000  C 
  H6       1.0000 0.68860  0.57000  0.90530  Biso   1.000  H 
  H7       1.0000 0.59450  0.59030  0.92230  Biso   1.000  H 
  H8       1.0000 0.66870  0.69630  0.93970  Biso   1.000  H 
  C15      1.0000 0.79730  0.57150  0.04520  Biso   1.000  C 
  C16      1.0000 0.86300  0.47270  0.03550  Biso   1.000  C 
  H9       1.0000 0.92410  0.50320  0.05300  Biso   1.000  H 
  H10      1.0000 0.85490  0.39800  0.06060  Biso   1.000  H 
  H11      1.0000 0.85210  0.45340  0.98660  Biso   1.000  H 
  C17      1.0000 0.82850  0.70410  0.02740  Biso   1.000  C 
  H12      1.0000 0.78440  0.76580  0.03210  Biso   1.000  H 
  H13      1.0000 0.88640  0.72390  0.05900  Biso   1.000  H 
  H14      1.0000 0.83420  0.70440  0.98020  Biso   1.000  H 
  O6       1.0000 0.56830  0.63730  0.04910  Biso   1.000  O 
  H15      1.0000 0.56102  0.72555  0.06339  Biso   1.000  H 
  C18      1.0000 0.68940  0.64840  0.19240  Biso   1.000  C 
  C19      1.0000 0.62430  0.73970  0.19130  Biso   1.000  C 
  H16      1.0000 0.59560  0.77930  0.14940  Biso   1.000  H 
  N3       1.0000 0.60200  0.77160  0.25080  Biso   1.000  N 
  Zn1      1.0000 0.50000  0.91558  0.25000  Biso   1.000  Zn
  O7       1.0000 0.45850  0.92040  0.14320  Biso   1.000  O 
  C20      1.0000 0.45860  0.01750  0.10620  Biso   1.000  C 
  C21      1.0000 0.39090  0.00880  0.03290  Biso   1.000  C 
  F13      1.0000 0.30820  0.03900  0.03850  Biso   1.000  F 
  F14      1.0000 0.41170  0.08750  0.98690  Biso   1.000  F 
  F15      1.0000 0.38750  0.89380  0.00780  Biso   1.000  F 
  C22      1.0000 0.50980  0.12700  0.12400  Biso   1.000  C 
  H17      1.0000 0.50430  0.19050  0.09070  Biso   1.000  H 
  C23      1.0000 0.56930  0.14460  0.19020  Biso   1.000  C 
  C24      1.0000 0.61480  0.27300  0.20630  Biso   1.000  C 
  F16      1.0000 0.58540  0.36000  0.16150  Biso   1.000  F 
  F17      1.0000 0.70210  0.26620  0.19180  Biso   1.000  F 
  F18      1.0000 0.64060  0.30080  0.26880  Biso   1.000  F 
  O8       1.0000 0.58920  0.06710  0.24040  Biso   1.000  O 
  O9       1.0000 0.54150  0.92040  0.35680  Biso   1.000  O 
  C25      1.0000 0.54140  0.01750  0.39380  Biso   1.000  C 
  C26      1.0000 0.49020  0.12700  0.37600  Biso   1.000  C 
  H18      1.0000 0.49570  0.19050  0.40930  Biso   1.000  H 
  C27      1.0000 0.43070  0.14460  0.30980  Biso   1.000  C 
  C28      1.0000 0.38520  0.27300  0.29370  Biso   1.000  C 
  F19      1.0000 0.35940  0.30080  0.23120  Biso   1.000  F 
  F20      1.0000 0.29790  0.26620  0.30820  Biso   1.000  F 
  F21      1.0000 0.41460  0.36000  0.33850  Biso   1.000  F 
  O10      1.0000 0.41080  0.06710  0.25960  Biso   1.000  O 
  C29      1.0000 0.60910  0.00880  0.46710  Biso   1.000  C 
  F22      1.0000 0.69180  0.03900  0.46150  Biso   1.000  F 
  F23      1.0000 0.58830  0.08750  0.51310  Biso   1.000  F 
  F24      1.0000 0.61250  0.89380  0.49220  Biso   1.000  F 
  N4       1.0000 0.39800  0.77160  0.24920  Biso   1.000  N 
  C30      1.0000 0.35680  0.70980  0.19080  Biso   1.000  C 
  H19      1.0000 0.37430  0.73050  0.15050  Biso   1.000  H 
  N5       1.0000 0.29350  0.62190  0.18460  Biso   1.000  N 
  C31      1.0000 0.27010  0.59130  0.24410  Biso   1.000  C 
  H20      1.0000 0.22560  0.53040  0.24240  Biso   1.000  H 
  C32      1.0000 0.31060  0.64840  0.30760  Biso   1.000  C 
  C33      1.0000 0.37570  0.73970  0.30870  Biso   1.000  C 
  H21      1.0000 0.40440  0.77930  0.35060  Biso   1.000  H 
  C34      1.0000 0.28720  0.61240  0.37300  Biso   1.000  C 
  N6       1.0000 0.34720  0.61020  0.43730  Biso   1.000  N 
  C35      1.0000 0.30320  0.55030  0.49000  Biso   1.000  C 
  C36      1.0000 0.33180  0.40940  0.49260  Biso   1.000  C 
  H22      1.0000 0.30970  0.37270  0.44700  Biso   1.000  H 
  H23      1.0000 0.30620  0.36520  0.52540  Biso   1.000  H 
  H24      1.0000 0.39700  0.40320  0.50700  Biso   1.000  H 
  C37      1.0000 0.34140  0.60690  0.56230  Biso   1.000  C 
  H25      1.0000 0.31140  0.57000  0.59470  Biso   1.000  H 
  H26      1.0000 0.33130  0.69630  0.56030  Biso   1.000  H 
  H27      1.0000 0.40550  0.59030  0.57770  Biso   1.000  H 
  C38      1.0000 0.20270  0.57150  0.45480  Biso   1.000  C 
  C39      1.0000 0.13700  0.47270  0.46450  Biso   1.000  C 
  H28      1.0000 0.07590  0.50320  0.44700  Biso   1.000  H 
  H29      1.0000 0.14510  0.39800  0.43940  Biso   1.000  H 
  H30      1.0000 0.14790  0.45340  0.51340  Biso   1.000  H 
  C40      1.0000 0.17150  0.70410  0.47260  Biso   1.000  C 
  H31      1.0000 0.11360  0.72390  0.44100  Biso   1.000  H 
  H32      1.0000 0.21560  0.76580  0.46790  Biso   1.000  H 
  H33      1.0000 0.16580  0.70440  0.51980  Biso   1.000  H 
  N7       1.0000 0.20600  0.57900  0.37830  Biso   1.000  N 
  O11      1.0000 0.13400  0.56110  0.32720  Biso   1.000  O 
  O12      1.0000 0.43170  0.63730  0.45090  Biso   1.000  O 
  H34      1.0000 0.43898  0.72555  0.43661  Biso   1.000  H 
  C41      1.0000 0.64320  0.70980  0.30920  Biso   1.000  C 
  H35      1.0000 0.62570  0.73050  0.34950  Biso   1.000  H 
  N8       1.0000 0.70650  0.62190  0.31540  Biso   1.000  N 
  C42      1.0000 0.72990  0.59130  0.25590  Biso   1.000  C 
  H36      1.0000 0.77440  0.53040  0.25760  Biso   1.000  H 
  O13      1.0000 0.06090  0.73390  0.16130  Biso   1.000  O 
  C43      1.0000 0.10710  0.82890  0.15500  Biso   1.000  C 
  C44      1.0000 0.15300  0.91560  0.21210  Biso   1.000  C 
  H37      1.0000 0.19040  0.97950  0.20330  Biso   1.000  H 
  C45      1.0000 0.14060  0.90160  0.27570  Biso   1.000  C 
  C46      1.0000 0.18610  0.99570  0.33780  Biso   1.000  C 
  F25      1.0000 0.25990  0.94530  0.37490  Biso   1.000  F 
  F26      1.0000 0.15540  0.04400  0.38150  Biso   1.000  F 
  F27      1.0000 0.19680  0.07700  0.30040  Biso   1.000  F 
  O14      1.0000 0.09670  0.81820  0.30000  Biso   1.000  O 
  C47      1.0000 0.12050  0.86530  0.08850  Biso   1.000  C 
  F28      1.0000 0.06500  0.80200  0.03050  Biso   1.000  F 
  F29      1.0000 0.15650  0.77970  0.06040  Biso   1.000  F 
  F30      1.0000 0.11540  0.97460  0.05920  Biso   1.000  F 
