data_image0
_cell_length_a       12.8225
_cell_length_b       21.1944
_cell_length_c       16.5207
_cell_angle_alpha    90
_cell_angle_beta     125.941
_cell_angle_gamma    90

_symmetry_space_group_name_H-M    "P 1"
_symmetry_int_tables_number       1

loop_
  _symmetry_equiv_pos_as_xyz
  'x, y, z'

loop_
  _atom_site_label
  _atom_site_occupancy
  _atom_site_fract_x
  _atom_site_fract_y
  _atom_site_fract_z
  _atom_site_thermal_displace_type
  _atom_site_B_iso_or_equiv
  _atom_site_type_symbol
  Sm1      1.0000 0.82506  0.85940  0.30069  Biso   1.000  Sm
  N1       1.0000 0.75140  0.74142  0.25048  Biso   1.000  N 
  C1       1.0000 0.64210  0.72217  0.23410  Biso   1.000  C 
  H1       1.0000 0.58900  0.74800  0.24300  Biso   1.000  H 
  N2       1.0000 0.61520  0.66168  0.20340  Biso   1.000  N 
  C2       1.0000 0.51170  0.62497  0.18920  Biso   1.000  C 
  C3       1.0000 0.53800  0.56564  0.23080  Biso   1.000  C 
  C4       1.0000 0.43920  0.53045  0.21900  Biso   1.000  C 
  H2       1.0000 0.45720  0.48940  0.24740  Biso   1.000  H 
  C5       1.0000 0.31420  0.55356  0.16650  Biso   1.000  C 
  C6       1.0000 0.28860  0.61338  0.12320  Biso   1.000  C 
  C7       1.0000 0.38710  0.64893  0.13440  Biso   1.000  C 
  H3       1.0000 0.36940  0.68950  0.10460  Biso   1.000  H 
  H4       1.0000 0.20350  0.62980  0.08600  Biso   1.000  H 
  C8       1.0000 0.21430  0.51176  0.15900  Biso   1.000  C 
  C9       1.0000 0.08880  0.53250  0.11430  Biso   1.000  C 
  H5       1.0000 0.06630  0.57370  0.08650  Biso   1.000  H 
  C10      1.0000 0.99380  0.49536  0.10850  Biso   1.000  C 
  O1       1.0000 0.00956  0.43882  0.13948  Biso   1.000  O 
  Sm2      1.0000 0.17494  0.35940  0.19931  Biso   1.000  Sm
  N3       1.0000 0.96720  0.29830  0.14897  Biso   1.000  N 
  C11      1.0000 0.92050  0.24246  0.09650  Biso   1.000  C 
  H6       1.0000 0.96350  0.21750  0.07680  Biso   1.000  H 
  C12      1.0000 0.80550  0.22818  0.07720  Biso   1.000  C 
  H7       1.0000 0.75400  0.19220  0.04260  Biso   1.000  H 
  N4       1.0000 0.77770  0.27673  0.11798  Biso   1.000  N 
  C13      1.0000 0.66090  0.28381  0.11000  Biso   1.000  C 
  C14      1.0000 0.66010  0.31655  0.18230  Biso   1.000  C 
  C15      1.0000 0.54400  0.32454  0.16980  Biso   1.000  C 
  H8       1.0000 0.54290  0.34770  0.21850  Biso   1.000  H 
  C16      1.0000 0.42880  0.29955  0.08760  Biso   1.000  C 
  C17      1.0000 0.43430  0.26466  0.01860  Biso   1.000  C 
  C18      1.0000 0.54900  0.25725  0.02910  Biso   1.000  C 
  H9       1.0000 0.55080  0.23400  0.98080  Biso   1.000  H 
  H10      1.0000 0.35810  0.24570  0.96340  Biso   1.000  H 
  C19      1.0000 0.30550  0.31119  0.07690  Biso   1.000  C 
  C20      1.0000 0.18840  0.29190  0.98900  Biso   1.000  C 
  H11      1.0000 0.19160  0.26940  0.94080  Biso   1.000  H 
  C21      1.0000 0.06750  0.30364  0.96790  Biso   1.000  C 
  O2       1.0000 0.04820  0.33152  0.02578  Biso   1.000  O 
  C22      1.0000 0.94950  0.28276  0.86790  Biso   1.000  C 
  H12      1.0000 0.97510  0.25420  0.83590  Biso   1.000  H 
  H13      1.0000 0.90620  0.31970  0.82520  Biso   1.000  H 
  H14      1.0000 0.89040  0.26080  0.87780  Biso   1.000  H 
  O3       1.0000 0.31542  0.33819  0.14925  Biso   1.000  O 
  H15      1.0000 0.73770  0.33320  0.23940  Biso   1.000  H 
  C23      1.0000 0.87790  0.31754  0.15940  Biso   1.000  C 
  H16      1.0000 0.88310  0.35560  0.19200  Biso   1.000  H 
  N5       1.0000 0.24860  0.24142  0.24952  Biso   1.000  N 
  C24      1.0000 0.20460  0.18952  0.27170  Biso   1.000  C 
  H17      1.0000 0.12770  0.18850  0.26790  Biso   1.000  H 
  C25      1.0000 0.28570  0.14052  0.29960  Biso   1.000  C 
  H18      1.0000 0.27640  0.09950  0.31780  Biso   1.000  H 
  N6       1.0000 0.38480  0.16168  0.29660  Biso   1.000  N 
  C26      1.0000 0.35790  0.22217  0.26590  Biso   1.000  C 
  H19      1.0000 0.41100  0.24800  0.25700  Biso   1.000  H 
  C27      1.0000 0.48830  0.12497  0.31080  Biso   1.000  C 
  C28      1.0000 0.46200  0.06564  0.26920  Biso   1.000  C 
  H20      1.0000 0.37710  0.04910  0.23290  Biso   1.000  H 
  C29      1.0000 0.56080  0.03045  0.28100  Biso   1.000  C 
  H21      1.0000 0.54280  0.98940  0.25260  Biso   1.000  H 
  C30      1.0000 0.68580  0.05356  0.33350  Biso   1.000  C 
  C31      1.0000 0.71140  0.11338  0.37680  Biso   1.000  C 
  C32      1.0000 0.61290  0.14893  0.36560  Biso   1.000  C 
  H22      1.0000 0.63060  0.18950  0.39540  Biso   1.000  H 
  H23      1.0000 0.79650  0.12980  0.41400  Biso   1.000  H 
  C33      1.0000 0.78570  0.01176  0.34100  Biso   1.000  C 
  O4       1.0000 0.74520  0.95758  0.30089  Biso   1.000  O 
  C34      1.0000 0.91120  0.03250  0.38570  Biso   1.000  C 
  H24      1.0000 0.93370  0.07370  0.41350  Biso   1.000  H 
  C35      1.0000 0.00620  0.99536  0.39150  Biso   1.000  C 
  O5       1.0000 0.99044  0.93882  0.36052  Biso   1.000  O 
  C36      1.0000 0.13530  0.02551  0.43330  Biso   1.000  C 
  H25      1.0000 0.13170  0.04790  0.37980  Biso   1.000  H 
  H26      1.0000 0.15610  0.05540  0.48610  Biso   1.000  H 
  H27      1.0000 0.20190  0.99280  0.46120  Biso   1.000  H 
  O6       1.0000 0.16573  0.36316  0.34096  Biso   1.000  O 
  C37      1.0000 0.24270  0.38044  0.43090  Biso   1.000  C 
  C38      1.0000 0.37110  0.39851  0.47670  Biso   1.000  C 
  H28      1.0000 0.41650  0.41760  0.54090  Biso   1.000  H 
  C39      1.0000 0.43520  0.38999  0.43290  Biso   1.000  C 
  C40      1.0000 0.57280  0.41069  0.48510  Biso   1.000  C 
  C41      1.0000 0.62160  0.41321  0.42870  Biso   1.000  C 
  H29      1.0000 0.56800  0.40100  0.36040  Biso   1.000  H 
  C42      1.0000 0.74570  0.43289  0.46950  Biso   1.000  C 
  H30      1.0000 0.77650  0.43500  0.42940  Biso   1.000  H 
  C43      1.0000 0.82510  0.44962  0.56980  Biso   1.000  C 
  N7       1.0000 0.95400  0.46994  0.61316  Biso   1.000  N 
  C44      1.0000 0.03270  0.45071  0.58790  Biso   1.000  C 
  H31      1.0000 0.00910  0.41980  0.53820  Biso   1.000  H 
  N8       1.0000 0.14430  0.47939  0.63950  Biso   1.000  N 
  C45      1.0000 0.13750  0.51951  0.70120  Biso   1.000  C 
  H32      1.0000 0.20460  0.54720  0.74800  Biso   1.000  H 
  C46      1.0000 0.02290  0.51444  0.68670  Biso   1.000  C 
  H33      1.0000 0.99530  0.53710  0.72060  Biso   1.000  H 
  C47      1.0000 0.77990  0.44708  0.62760  Biso   1.000  C 
  H34      1.0000 0.83480  0.45820  0.69630  Biso   1.000  H 
  C48      1.0000 0.65360  0.42821  0.58490  Biso   1.000  C 
  H35      1.0000 0.62230  0.42730  0.62460  Biso   1.000  H 
  O7       1.0000 0.38530  0.36372  0.34856  Biso   1.000  O 
  C49      1.0000 0.19230  0.38011  0.49430  Biso   1.000  C 
  H36      1.0000 0.09840  0.37550  0.45090  Biso   1.000  H 
  H37      1.0000 0.21550  0.41980  0.53140  Biso   1.000  H 
  H38      1.0000 0.23070  0.34470  0.54140  Biso   1.000  H 
  O8       1.0000 0.25480  0.45758  0.19911  Biso   1.000  O 
  C50      1.0000 0.86470  0.52551  0.06670  Biso   1.000  C 
  H39      1.0000 0.79810  0.49280  0.03880  Biso   1.000  H 
  H40      1.0000 0.84390  0.55540  0.01390  Biso   1.000  H 
  H41      1.0000 0.86830  0.54790  0.12020  Biso   1.000  H 
  H42      1.0000 0.62290  0.54910  0.26710  Biso   1.000  H 
  C51      1.0000 0.71430  0.64052  0.20040  Biso   1.000  C 
  H43      1.0000 0.72360  0.59950  0.18220  Biso   1.000  H 
  C52      1.0000 0.79540  0.68952  0.22830  Biso   1.000  C 
  H44      1.0000 0.87230  0.68850  0.23210  Biso   1.000  H 
  O9       1.0000 0.68458  0.83819  0.35075  Biso   1.000  O 
  C53      1.0000 0.69450  0.81119  0.42310  Biso   1.000  C 
  C54      1.0000 0.57120  0.79955  0.41240  Biso   1.000  C 
  C55      1.0000 0.45600  0.82454  0.33020  Biso   1.000  C 
  H45      1.0000 0.45710  0.84770  0.28150  Biso   1.000  H 
  C56      1.0000 0.33990  0.81655  0.31770  Biso   1.000  C 
  H46      1.0000 0.26230  0.83320  0.26060  Biso   1.000  H 
  C57      1.0000 0.33910  0.78381  0.39000  Biso   1.000  C 
  N9       1.0000 0.22230  0.77673  0.38202  Biso   1.000  N 
  C58      1.0000 0.19450  0.72818  0.42280  Biso   1.000  C 
  H47      1.0000 0.24600  0.69220  0.45740  Biso   1.000  H 
  C59      1.0000 0.07950  0.74246  0.40350  Biso   1.000  C 
  H48      1.0000 0.03650  0.71750  0.42320  Biso   1.000  H 
  N10      1.0000 0.03280  0.79830  0.35103  Biso   1.000  N 
  C60      1.0000 0.12210  0.81754  0.34060  Biso   1.000  C 
  H49      1.0000 0.11690  0.85560  0.30800  Biso   1.000  H 
  C61      1.0000 0.45100  0.75725  0.47090  Biso   1.000  C 
  H50      1.0000 0.44920  0.73400  0.51920  Biso   1.000  H 
  C62      1.0000 0.56570  0.76466  0.48140  Biso   1.000  C 
  H51      1.0000 0.64190  0.74570  0.53660  Biso   1.000  H 
  C63      1.0000 0.81160  0.79190  0.51100  Biso   1.000  C 
  H52      1.0000 0.80840  0.76940  0.55920  Biso   1.000  H 
  C64      1.0000 0.93250  0.80364  0.53210  Biso   1.000  C 
  O10      1.0000 0.95180  0.83152  0.47422  Biso   1.000  O 
  C65      1.0000 0.05050  0.78276  0.63210  Biso   1.000  C 
  H53      1.0000 0.02490  0.75420  0.66410  Biso   1.000  H 
  H54      1.0000 0.09380  0.81970  0.67480  Biso   1.000  H 
  H55      1.0000 0.10960  0.76080  0.62220  Biso   1.000  H 
  O11      1.0000 0.61470  0.86372  0.15144  Biso   1.000  O 
  C66      1.0000 0.56480  0.88999  0.06710  Biso   1.000  C 
  C67      1.0000 0.42720  0.91069  0.01490  Biso   1.000  C 
  C68      1.0000 0.37840  0.91321  0.07130  Biso   1.000  C 
  H56      1.0000 0.43200  0.90100  0.13960  Biso   1.000  H 
  C69      1.0000 0.25430  0.93289  0.03050  Biso   1.000  C 
  H57      1.0000 0.22350  0.93500  0.07060  Biso   1.000  H 
  C70      1.0000 0.17490  0.94962  0.93020  Biso   1.000  C 
  N11      1.0000 0.04600  0.96994  0.88684  Biso   1.000  N 
  C71      1.0000 0.96730  0.95071  0.91210  Biso   1.000  C 
  H58      1.0000 0.99090  0.91980  0.96180  Biso   1.000  H 
  N12      1.0000 0.85570  0.97939  0.86050  Biso   1.000  N 
  C72      1.0000 0.86250  0.01951  0.79880  Biso   1.000  C 
  H59      1.0000 0.79540  0.04720  0.75200  Biso   1.000  H 
  C73      1.0000 0.97710  0.01444  0.81330  Biso   1.000  C 
  H60      1.0000 0.00470  0.03710  0.77940  Biso   1.000  H 
  C74      1.0000 0.22010  0.94708  0.87240  Biso   1.000  C 
  H61      1.0000 0.16520  0.95820  0.80370  Biso   1.000  H 
  C75      1.0000 0.34640  0.92821  0.91510  Biso   1.000  C 
  H62      1.0000 0.37770  0.92730  0.87540  Biso   1.000  H 
  C76      1.0000 0.62890  0.89851  0.02330  Biso   1.000  C 
  H63      1.0000 0.58350  0.91760  0.95910  Biso   1.000  H 
  C77      1.0000 0.75730  0.88044  0.06910  Biso   1.000  C 
  O12      1.0000 0.83427  0.86316  0.15904  Biso   1.000  O 
  C78      1.0000 0.80770  0.88011  0.00570  Biso   1.000  C 
  H64      1.0000 0.90160  0.87550  0.04910  Biso   1.000  H 
  H65      1.0000 0.76930  0.84470  0.95860  Biso   1.000  H 
  H66      1.0000 0.78450  0.91980  0.96860  Biso   1.000  H 
