data_image0
_cell_length_a       27.017
_cell_length_b       10.919
_cell_length_c       34.189
_cell_angle_alpha    90
_cell_angle_beta     139.244
_cell_angle_gamma    90

_symmetry_space_group_name_H-M    "P 1"
_symmetry_int_tables_number       1

loop_
  _symmetry_equiv_pos_as_xyz
  'x, y, z'

loop_
  _atom_site_label
  _atom_site_occupancy
  _atom_site_fract_x
  _atom_site_fract_y
  _atom_site_fract_z
  _atom_site_thermal_displace_type
  _atom_site_B_iso_or_equiv
  _atom_site_type_symbol
  O1       1.0000 0.24605  0.51390  0.68095  Biso   1.000  O 
  Zn1      1.0000 0.21298  0.37911  0.69456  Biso   1.000  Zn
  O2       1.0000 0.12226  0.42370  0.66878  Biso   1.000  O 
  C1       1.0000 0.10440  0.33650  0.68056  Biso   1.000  C 
  O3       1.0000 0.14244  0.24390  0.70646  Biso   1.000  O 
  C2       1.0000 0.03080  0.34580  0.65838  Biso   1.000  C 
  C3       1.0000 0.98310  0.44240  0.62400  Biso   1.000  C 
  H1       1.0000 0.99760  0.50560  0.61600  Biso   1.000  H 
  C4       1.0000 0.91460  0.44710  0.60110  Biso   1.000  C 
  H2       1.0000 0.88230  0.51290  0.57720  Biso   1.000  H 
  C5       1.0000 0.89290  0.35720  0.61300  Biso   1.000  C 
  C6       1.0000 0.94040  0.25950  0.64800  Biso   1.000  C 
  H3       1.0000 0.92590  0.19680  0.65620  Biso   1.000  H 
  C7       1.0000 0.00890  0.25590  0.67065  Biso   1.000  C 
  H4       1.0000 0.04160  0.19080  0.69500  Biso   1.000  H 
  O4       1.0000 0.82219  0.36830  0.58715  Biso   1.000  O 
  C8       1.0000 0.79740  0.28510  0.59990  Biso   1.000  C 
  C9       1.0000 0.82560  0.28150  0.65340  Biso   1.000  C 
  H5       1.0000 0.86500  0.33360  0.68400  Biso   1.000  H 
  C10      1.0000 0.79630  0.20090  0.66290  Biso   1.000  C 
  H6       1.0000 0.81600  0.19880  0.69990  Biso   1.000  H 
  C11      1.0000 0.73720  0.12240  0.61730  Biso   1.000  C 
  C12      1.0000 0.70670  0.03700  0.62710  Biso   1.000  C 
  O5       1.0000 0.74605  0.01390  0.68095  Biso   1.000  O 
  Zn2      1.0000 0.71298  0.87911  0.69456  Biso   1.000  Zn
  N1       1.0000 0.70431  0.72610  0.65755  Biso   1.000  N 
  C13      1.0000 0.64810  0.70130  0.60063  Biso   1.000  C 
  H7       1.0000 0.60900  0.75570  0.57160  Biso   1.000  H 
  C14      1.0000 0.74700  0.62410  0.68320  Biso   1.000  C 
  C15      1.0000 0.71690  0.53880  0.64209  Biso   1.000  C 
  H8       1.0000 0.73590  0.46070  0.64870  Biso   1.000  H 
  N2       1.0000 0.65309  0.58870  0.58875  Biso   1.000  N 
  C16      1.0000 0.59950  0.52900  0.53119  Biso   1.000  C 
  C17      1.0000 0.61240  0.41430  0.52680  Biso   1.000  C 
  H9       1.0000 0.65590  0.37290  0.56060  Biso   1.000  H 
  C18      1.0000 0.56030  0.35860  0.47160  Biso   1.000  C 
  H10      1.0000 0.56910  0.27950  0.46800  Biso   1.000  H 
  C19      1.0000 0.49440  0.41970  0.42130  Biso   1.000  C 
  H11      1.0000 0.45850  0.38120  0.38410  Biso   1.000  H 
  C20      1.0000 0.48330  0.53660  0.42716  Biso   1.000  C 
  N3       1.0000 0.41604  0.59960  0.37582  Biso   1.000  N 
  C21      1.0000 0.39200  0.71220  0.37423  Biso   1.000  C 
  H12      1.0000 0.41790  0.76360  0.40680  Biso   1.000  H 
  C22      1.0000 0.32570  0.73460  0.31812  Biso   1.000  C 
  N4       1.0000 0.30648  0.63830  0.28309  Biso   1.000  N 
  C23      1.0000 0.36210  0.55950  0.31940  Biso   1.000  C 
  H13      1.0000 0.36390  0.48490  0.30730  Biso   1.000  H 
  Zn3      1.0000 0.21298  0.62089  0.19456  Biso   1.000  Zn
  N5       1.0000 0.20431  0.77390  0.15755  Biso   1.000  N 
  C24      1.0000 0.14810  0.79870  0.10063  Biso   1.000  C 
  H14      1.0000 0.10900  0.74430  0.07160  Biso   1.000  H 
  C25      1.0000 0.24700  0.87590  0.18320  Biso   1.000  C 
  C26      1.0000 0.21690  0.96120  0.14209  Biso   1.000  C 
  H15      1.0000 0.23590  0.03930  0.14870  Biso   1.000  H 
  N6       1.0000 0.15309  0.91130  0.08875  Biso   1.000  N 
  C27      1.0000 0.09950  0.97100  0.03119  Biso   1.000  C 
  C28      1.0000 0.11240  0.08570  0.02680  Biso   1.000  C 
  H16      1.0000 0.15590  0.12710  0.06060  Biso   1.000  H 
  C29      1.0000 0.06030  0.14140  0.97160  Biso   1.000  C 
  H17      1.0000 0.06910  0.22050  0.96800  Biso   1.000  H 
  C30      1.0000 0.99440  0.08030  0.92130  Biso   1.000  C 
  H18      1.0000 0.95850  0.11880  0.88410  Biso   1.000  H 
  C31      1.0000 0.98330  0.96340  0.92716  Biso   1.000  C 
  N7       1.0000 0.91604  0.90040  0.87582  Biso   1.000  N 
  C32      1.0000 0.89200  0.78780  0.87423  Biso   1.000  C 
  H19      1.0000 0.91790  0.73640  0.90680  Biso   1.000  H 
  C33      1.0000 0.82570  0.76540  0.81812  Biso   1.000  C 
  N8       1.0000 0.80648  0.86170  0.78309  Biso   1.000  N 
  C34      1.0000 0.86210  0.94050  0.81940  Biso   1.000  C 
  H20      1.0000 0.86390  0.01510  0.80730  Biso   1.000  H 
  H21      1.0000 0.79660  0.69540  0.80460  Biso   1.000  H 
  C35      1.0000 0.03520  0.90790  0.98176  Biso   1.000  C 
  H22      1.0000 0.02740  0.82820  0.98570  Biso   1.000  H 
  H23      1.0000 0.29150  0.88560  0.22400  Biso   1.000  H 
  O6       1.0000 0.24605  0.48610  0.18095  Biso   1.000  O 
  C36      1.0000 0.20670  0.46300  0.12710  Biso   1.000  C 
  C37      1.0000 0.23720  0.37760  0.11730  Biso   1.000  C 
  C38      1.0000 0.20890  0.37240  0.06240  Biso   1.000  C 
  C39      1.0000 0.24070  0.29010  0.05470  Biso   1.000  C 
  H24      1.0000 0.22270  0.28720  0.01840  Biso   1.000  H 
  C40      1.0000 0.29740  0.21490  0.09990  Biso   1.000  C 
  C41      1.0000 0.32560  0.21850  0.15340  Biso   1.000  C 
  H25      1.0000 0.36500  0.16640  0.18400  Biso   1.000  H 
  C42      1.0000 0.29630  0.29910  0.16290  Biso   1.000  C 
  H26      1.0000 0.31600  0.30120  0.19990  Biso   1.000  H 
  O7       1.0000 0.32219  0.13170  0.08715  Biso   1.000  O 
  C43      1.0000 0.39290  0.14280  0.11300  Biso   1.000  C 
  C44      1.0000 0.44040  0.24050  0.14800  Biso   1.000  C 
  H27      1.0000 0.42590  0.30320  0.15620  Biso   1.000  H 
  C45      1.0000 0.50890  0.24410  0.17065  Biso   1.000  C 
  H28      1.0000 0.54160  0.30920  0.19500  Biso   1.000  H 
  C46      1.0000 0.53080  0.15420  0.15838  Biso   1.000  C 
  C47      1.0000 0.48310  0.05760  0.12400  Biso   1.000  C 
  C48      1.0000 0.41460  0.05290  0.10110  Biso   1.000  C 
  H29      1.0000 0.38230  0.98710  0.07720  Biso   1.000  H 
  H30      1.0000 0.49760  0.99440  0.11600  Biso   1.000  H 
  C49      1.0000 0.60440  0.16350  0.18056  Biso   1.000  C 
  O8       1.0000 0.62226  0.07630  0.16878  Biso   1.000  O 
  Zn4      1.0000 0.71298  0.12089  0.19456  Biso   1.000  Zn
  N9       1.0000 0.70431  0.27390  0.15755  Biso   1.000  N 
  C50      1.0000 0.74700  0.37590  0.18320  Biso   1.000  C 
  H31      1.0000 0.79150  0.38560  0.22400  Biso   1.000  H 
  C51      1.0000 0.71690  0.46120  0.14209  Biso   1.000  C 
  H32      1.0000 0.73590  0.53930  0.14870  Biso   1.000  H 
  N10      1.0000 0.65309  0.41130  0.08875  Biso   1.000  N 
  C52      1.0000 0.64810  0.29870  0.10063  Biso   1.000  C 
  H33      1.0000 0.60900  0.24430  0.07160  Biso   1.000  H 
  C53      1.0000 0.59950  0.47100  0.03119  Biso   1.000  C 
  C54      1.0000 0.61240  0.58570  0.02680  Biso   1.000  C 
  H34      1.0000 0.65590  0.62710  0.06060  Biso   1.000  H 
  C55      1.0000 0.56030  0.64140  0.97160  Biso   1.000  C 
  C56      1.0000 0.49440  0.58030  0.92130  Biso   1.000  C 
  H35      1.0000 0.45850  0.61880  0.88410  Biso   1.000  H 
  C57      1.0000 0.48330  0.46340  0.92716  Biso   1.000  C 
  N11      1.0000 0.41604  0.40040  0.87582  Biso   1.000  N 
  C58      1.0000 0.36210  0.44050  0.81940  Biso   1.000  C 
  H36      1.0000 0.36390  0.51510  0.80730  Biso   1.000  H 
  N12      1.0000 0.30648  0.36170  0.78309  Biso   1.000  N 
  C59      1.0000 0.32570  0.26540  0.81812  Biso   1.000  C 
  H37      1.0000 0.29660  0.19540  0.80460  Biso   1.000  H 
  C60      1.0000 0.39200  0.28780  0.87423  Biso   1.000  C 
  H38      1.0000 0.41790  0.23640  0.90680  Biso   1.000  H 
  C61      1.0000 0.53520  0.40790  0.98176  Biso   1.000  C 
  H39      1.0000 0.52740  0.32820  0.98570  Biso   1.000  H 
  H40      1.0000 0.56910  0.72050  0.96800  Biso   1.000  H 
  N13      1.0000 0.80648  0.13830  0.28309  Biso   1.000  N 
  C62      1.0000 0.82570  0.23460  0.31812  Biso   1.000  C 
  H41      1.0000 0.79660  0.30460  0.30460  Biso   1.000  H 
  C63      1.0000 0.89200  0.21220  0.37423  Biso   1.000  C 
  H42      1.0000 0.91790  0.26360  0.40680  Biso   1.000  H 
  N14      1.0000 0.91604  0.09960  0.37582  Biso   1.000  N 
  C64      1.0000 0.86210  0.05950  0.31940  Biso   1.000  C 
  H43      1.0000 0.86390  0.98490  0.30730  Biso   1.000  H 
  C65      1.0000 0.98330  0.03660  0.42716  Biso   1.000  C 
  C66      1.0000 0.03520  0.09210  0.48176  Biso   1.000  C 
  H44      1.0000 0.02740  0.17180  0.48570  Biso   1.000  H 
  C67      1.0000 0.09950  0.02900  0.53119  Biso   1.000  C 
  N15      1.0000 0.15309  0.08870  0.58875  Biso   1.000  N 
  C68      1.0000 0.14810  0.20130  0.60063  Biso   1.000  C 
  C69      1.0000 0.24700  0.12410  0.68320  Biso   1.000  C 
  H45      1.0000 0.29150  0.11440  0.72400  Biso   1.000  H 
  C70      1.0000 0.21690  0.03880  0.64209  Biso   1.000  C 
  H46      1.0000 0.23590  0.96070  0.64870  Biso   1.000  H 
  N16      1.0000 0.20431  0.22610  0.65755  Biso   1.000  N 
  H47      1.0000 0.10900  0.25570  0.57160  Biso   1.000  H 
  C71      1.0000 0.11240  0.91430  0.52680  Biso   1.000  C 
  H48      1.0000 0.15590  0.87290  0.56060  Biso   1.000  H 
  C72      1.0000 0.06030  0.85860  0.47160  Biso   1.000  C 
  H49      1.0000 0.06910  0.77950  0.46800  Biso   1.000  H 
  C73      1.0000 0.99440  0.91970  0.42130  Biso   1.000  C 
  H50      1.0000 0.95850  0.88120  0.38410  Biso   1.000  H 
  O9       1.0000 0.74605  0.98610  0.18095  Biso   1.000  O 
  C74      1.0000 0.70670  0.96300  0.12710  Biso   1.000  C 
  O10      1.0000 0.64385  0.01200  0.08419  Biso   1.000  O 
  C75      1.0000 0.73720  0.87760  0.11730  Biso   1.000  C 
  C76      1.0000 0.70890  0.87240  0.06240  Biso   1.000  C 
  C77      1.0000 0.74070  0.79010  0.05470  Biso   1.000  C 
  H51      1.0000 0.72270  0.78720  0.01840  Biso   1.000  H 
  C78      1.0000 0.79740  0.71490  0.09990  Biso   1.000  C 
  C79      1.0000 0.82560  0.71850  0.15340  Biso   1.000  C 
  H52      1.0000 0.86500  0.66640  0.18400  Biso   1.000  H 
  C80      1.0000 0.79630  0.79910  0.16290  Biso   1.000  C 
  H53      1.0000 0.81600  0.80120  0.19990  Biso   1.000  H 
  O11      1.0000 0.82219  0.63170  0.08715  Biso   1.000  O 
  C81      1.0000 0.89290  0.64280  0.11300  Biso   1.000  C 
  C82      1.0000 0.91460  0.55290  0.10110  Biso   1.000  C 
  H54      1.0000 0.88230  0.48710  0.07720  Biso   1.000  H 
  C83      1.0000 0.98310  0.55760  0.12400  Biso   1.000  C 
  H55      1.0000 0.99760  0.49440  0.11600  Biso   1.000  H 
  C84      1.0000 0.03080  0.65420  0.15838  Biso   1.000  C 
  C85      1.0000 0.10440  0.66350  0.18056  Biso   1.000  C 
  O12      1.0000 0.12226  0.57630  0.16878  Biso   1.000  O 
  O13      1.0000 0.14244  0.75610  0.20646  Biso   1.000  O 
  C86      1.0000 0.00890  0.74410  0.17065  Biso   1.000  C 
  C87      1.0000 0.94040  0.74050  0.14800  Biso   1.000  C 
  H56      1.0000 0.92590  0.80320  0.15620  Biso   1.000  H 
  H57      1.0000 0.04160  0.80920  0.19500  Biso   1.000  H 
  H58      1.0000 0.66920  0.92320  0.03110  Biso   1.000  H 
  O14      1.0000 0.64244  0.25610  0.20646  Biso   1.000  O 
  H59      1.0000 0.16920  0.42320  0.03110  Biso   1.000  H 
  O15      1.0000 0.14385  0.51200  0.08419  Biso   1.000  O 
  H60      1.0000 0.29660  0.80460  0.30460  Biso   1.000  H 
  C88      1.0000 0.53520  0.59210  0.48176  Biso   1.000  C 
  H61      1.0000 0.52740  0.67180  0.48570  Biso   1.000  H 
  H62      1.0000 0.79150  0.61440  0.72400  Biso   1.000  H 
  O16      1.0000 0.62226  0.92370  0.66878  Biso   1.000  O 
  C89      1.0000 0.60440  0.83650  0.68056  Biso   1.000  C 
  O17      1.0000 0.64244  0.74390  0.70646  Biso   1.000  O 
  C90      1.0000 0.53080  0.84580  0.65838  Biso   1.000  C 
  C91      1.0000 0.48310  0.94240  0.62400  Biso   1.000  C 
  C92      1.0000 0.41460  0.94710  0.60110  Biso   1.000  C 
  H63      1.0000 0.38230  0.01290  0.57720  Biso   1.000  H 
  C93      1.0000 0.39290  0.85720  0.61300  Biso   1.000  C 
  C94      1.0000 0.44040  0.75950  0.64800  Biso   1.000  C 
  H64      1.0000 0.42590  0.69680  0.65620  Biso   1.000  H 
  C95      1.0000 0.50890  0.75590  0.67065  Biso   1.000  C 
  H65      1.0000 0.54160  0.69080  0.69500  Biso   1.000  H 
  O18      1.0000 0.32219  0.86830  0.58715  Biso   1.000  O 
  C96      1.0000 0.29740  0.78510  0.59990  Biso   1.000  C 
  C97      1.0000 0.24070  0.70990  0.55470  Biso   1.000  C 
  H66      1.0000 0.22270  0.71280  0.51840  Biso   1.000  H 
  C98      1.0000 0.20890  0.62760  0.56240  Biso   1.000  C 
  H67      1.0000 0.16920  0.57680  0.53110  Biso   1.000  H 
  C99      1.0000 0.23720  0.62240  0.61730  Biso   1.000  C 
  C100     1.0000 0.20670  0.53700  0.62710  Biso   1.000  C 
  O19      1.0000 0.14385  0.48800  0.58419  Biso   1.000  O 
  C101     1.0000 0.29630  0.70090  0.66290  Biso   1.000  C 
  C102     1.0000 0.32560  0.78150  0.65340  Biso   1.000  C 
  H68      1.0000 0.36500  0.83360  0.68400  Biso   1.000  H 
  H69      1.0000 0.31600  0.69880  0.69990  Biso   1.000  H 
  H70      1.0000 0.49760  0.00560  0.61600  Biso   1.000  H 
  O20      1.0000 0.64385  0.98800  0.58419  Biso   1.000  O 
  C103     1.0000 0.70890  0.12760  0.56240  Biso   1.000  C 
  H71      1.0000 0.66920  0.07680  0.53110  Biso   1.000  H 
  C104     1.0000 0.74070  0.20990  0.55470  Biso   1.000  C 
  H72      1.0000 0.72270  0.21280  0.51840  Biso   1.000  H 
