data_image0
_cell_length_a       20.1473
_cell_length_b       27.5052
_cell_length_c       32.588
_cell_angle_alpha    90
_cell_angle_beta     97.021
_cell_angle_gamma    90

_symmetry_space_group_name_H-M    "P 1"
_symmetry_int_tables_number       1

loop_
  _symmetry_equiv_pos_as_xyz
  'x, y, z'

loop_
  _atom_site_label
  _atom_site_occupancy
  _atom_site_fract_x
  _atom_site_fract_y
  _atom_site_fract_z
  _atom_site_thermal_displace_type
  _atom_site_B_iso_or_equiv
  _atom_site_type_symbol
  Zn1      1.0000 0.26693  0.51271  0.12430  Biso   1.000  Zn
  O1       1.0000 0.19477  0.46222  0.11380  Biso   1.000  O 
  C1       1.0000 0.17308  0.44333  0.07940  Biso   1.000  C 
  O2       1.0000 0.18711  0.45672  0.04488  Biso   1.000  O 
  Zn2      1.0000 0.25510  0.50822  0.03299  Biso   1.000  Zn
  O3       1.0000 0.32599  0.45781  0.04486  Biso   1.000  O 
  C2       1.0000 0.34991  0.44394  0.08010  Biso   1.000  C 
  O4       1.0000 0.33352  0.46036  0.11399  Biso   1.000  O 
  C3       1.0000 0.39871  0.40211  0.08253  Biso   1.000  C 
  C4       1.0000 0.42720  0.38570  0.11953  Biso   1.000  C 
  C5       1.0000 0.47100  0.34512  0.12194  Biso   1.000  C 
  H1       1.0000 0.49360  0.33480  0.14780  Biso   1.000  H 
  C6       1.0000 0.48000  0.32115  0.08637  Biso   1.000  C 
  C7       1.0000 0.45190  0.33842  0.04887  Biso   1.000  C 
  C8       1.0000 0.41080  0.37928  0.04662  Biso   1.000  C 
  H2       1.0000 0.39140  0.39130  0.02060  Biso   1.000  H 
  H3       1.0000 0.46040  0.32240  0.02420  Biso   1.000  H 
  N1       1.0000 0.52075  0.27914  0.09192  Biso   1.000  N 
  N2       1.0000 0.53240  0.26018  0.05888  Biso   1.000  N 
  C9       1.0000 0.57070  0.21584  0.06460  Biso   1.000  C 
  C10      1.0000 0.59190  0.19454  0.10284  Biso   1.000  C 
  C11      1.0000 0.62510  0.15145  0.10458  Biso   1.000  C 
  H4       1.0000 0.63910  0.13700  0.13070  Biso   1.000  H 
  C12      1.0000 0.63870  0.12845  0.06895  Biso   1.000  C 
  C13      1.0000 0.61718  0.14957  0.03041  Biso   1.000  C 
  H5       1.0000 0.62560  0.13370  0.00560  Biso   1.000  H 
  C14      1.0000 0.58394  0.19325  0.02870  Biso   1.000  C 
  H6       1.0000 0.57000  0.20800  0.00270  Biso   1.000  H 
  C15      1.0000 0.67699  0.08146  0.07120  Biso   1.000  C 
  O5       1.0000 0.68455  0.06092  0.03786  Biso   1.000  O 
  Zn3      1.0000 0.75510  0.00822  0.03299  Biso   1.000  Zn
  O6       1.0000 0.82182  0.06198  0.04937  Biso   1.000  O 
  C16      1.0000 0.84618  0.08060  0.08319  Biso   1.000  C 
  C17      1.0000 0.88730  0.12502  0.08099  Biso   1.000  C 
  C18      1.0000 0.89960  0.14266  0.04240  Biso   1.000  C 
  H7       1.0000 0.88360  0.12530  0.01800  Biso   1.000  H 
  C19      1.0000 0.93420  0.18427  0.03977  Biso   1.000  C 
  H8       1.0000 0.94150  0.19680  0.01350  Biso   1.000  H 
  C20      1.0000 0.95910  0.20877  0.07560  Biso   1.000  C 
  C21      1.0000 0.94910  0.19092  0.11463  Biso   1.000  C 
  C22      1.0000 0.91230  0.14803  0.11688  Biso   1.000  C 
  H9       1.0000 0.90470  0.13510  0.14290  Biso   1.000  H 
  H10      1.0000 0.96690  0.20760  0.13910  Biso   1.000  H 
  N3       1.0000 0.99720  0.25614  0.06462  Biso   1.000  N 
  N4       1.0000 0.00440  0.27396  0.09461  Biso   1.000  N 
  C23      1.0000 0.04630  0.32104  0.08361  Biso   1.000  C 
  C24      1.0000 0.06100  0.35008  0.11846  Biso   1.000  C 
  H11      1.0000 0.04240  0.34290  0.14320  Biso   1.000  H 
  C25      1.0000 0.10150  0.38810  0.11675  Biso   1.000  C 
  H12      1.0000 0.11340  0.40710  0.14090  Biso   1.000  H 
  C26      1.0000 0.12649  0.40051  0.08067  Biso   1.000  C 
  C27      1.0000 0.10860  0.37475  0.04456  Biso   1.000  C 
  H13      1.0000 0.12250  0.38490  0.01910  Biso   1.000  H 
  C28      1.0000 0.06860  0.33265  0.04703  Biso   1.000  C 
  H14      1.0000 0.05750  0.31270  0.02340  Biso   1.000  H 
  O7       1.0000 0.83768  0.06394  0.11778  Biso   1.000  O 
  Zn4      1.0000 0.76693  0.01271  0.12430  Biso   1.000  Zn
  O8       1.0000 0.69891  0.06603  0.10603  Biso   1.000  O 
  N5       1.0000 0.77148  0.01261  0.18702  Biso   1.000  N 
  C29      1.0000 0.81270  0.04424  0.21061  Biso   1.000  C 
  C30      1.0000 0.81520  0.04694  0.25285  Biso   1.000  C 
  H15      1.0000 0.84340  0.06980  0.26830  Biso   1.000  H 
  C31      1.0000 0.77451  0.01461  0.27263  Biso   1.000  C 
  C32      1.0000 0.77800  0.01718  0.31788  Biso   1.000  C 
  H16      1.0000 0.80570  0.04130  0.33210  Biso   1.000  H 
  C33      1.0000 0.74380  0.98705  0.34014  Biso   1.000  C 
  H17      1.0000 0.71650  0.96270  0.32600  Biso   1.000  H 
  C34      1.0000 0.74670  0.99001  0.38512  Biso   1.000  C 
  C35      1.0000 0.72760  0.95023  0.40684  Biso   1.000  C 
  H18      1.0000 0.71270  0.92140  0.39250  Biso   1.000  H 
  C36      1.0000 0.73020  0.95238  0.44873  Biso   1.000  C 
  H19      1.0000 0.71560  0.92510  0.46310  Biso   1.000  H 
  N6       1.0000 0.75242  0.99151  0.47030  Biso   1.000  N 
  C37      1.0000 0.77160  0.03123  0.44969  Biso   1.000  C 
  H20      1.0000 0.78490  0.06010  0.46450  Biso   1.000  H 
  C38      1.0000 0.77180  0.02962  0.40829  Biso   1.000  C 
  H21      1.0000 0.78950  0.05630  0.39470  Biso   1.000  H 
  Zn5      1.0000 0.75510  0.99178  0.53299  Biso   1.000  Zn
  O9       1.0000 0.68455  0.93908  0.53786  Biso   1.000  O 
  C39      1.0000 0.67699  0.91854  0.57120  Biso   1.000  C 
  C40      1.0000 0.63870  0.87155  0.56895  Biso   1.000  C 
  C41      1.0000 0.62510  0.84855  0.60458  Biso   1.000  C 
  H22      1.0000 0.63910  0.86300  0.63070  Biso   1.000  H 
  C42      1.0000 0.59190  0.80546  0.60284  Biso   1.000  C 
  H23      1.0000 0.58320  0.78980  0.62760  Biso   1.000  H 
  C43      1.0000 0.57070  0.78416  0.56460  Biso   1.000  C 
  N7       1.0000 0.53240  0.73982  0.55888  Biso   1.000  N 
  N8       1.0000 0.52075  0.72086  0.59192  Biso   1.000  N 
  C44      1.0000 0.48000  0.67885  0.58637  Biso   1.000  C 
  C45      1.0000 0.45190  0.66158  0.54887  Biso   1.000  C 
  C46      1.0000 0.41080  0.62072  0.54662  Biso   1.000  C 
  H24      1.0000 0.39140  0.60870  0.52060  Biso   1.000  H 
  C47      1.0000 0.39871  0.59789  0.58253  Biso   1.000  C 
  C48      1.0000 0.34991  0.55606  0.58010  Biso   1.000  C 
  O10      1.0000 0.32599  0.54219  0.54486  Biso   1.000  O 
  Zn6      1.0000 0.25510  0.49178  0.53299  Biso   1.000  Zn
  N9       1.0000 0.25242  0.49151  0.47030  Biso   1.000  N 
  C49      1.0000 0.23020  0.45238  0.44873  Biso   1.000  C 
  H25      1.0000 0.21560  0.42510  0.46310  Biso   1.000  H 
  C50      1.0000 0.22760  0.45023  0.40684  Biso   1.000  C 
  H26      1.0000 0.21270  0.42140  0.39250  Biso   1.000  H 
  C51      1.0000 0.24670  0.49001  0.38512  Biso   1.000  C 
  C52      1.0000 0.27180  0.52962  0.40829  Biso   1.000  C 
  C53      1.0000 0.27160  0.53123  0.44969  Biso   1.000  C 
  H27      1.0000 0.28490  0.56010  0.46450  Biso   1.000  H 
  H28      1.0000 0.28950  0.55630  0.39470  Biso   1.000  H 
  C54      1.0000 0.24380  0.48705  0.34014  Biso   1.000  C 
  H29      1.0000 0.21650  0.46270  0.32600  Biso   1.000  H 
  C55      1.0000 0.27800  0.51718  0.31788  Biso   1.000  C 
  H30      1.0000 0.30570  0.54130  0.33210  Biso   1.000  H 
  C56      1.0000 0.27451  0.51461  0.27263  Biso   1.000  C 
  C57      1.0000 0.23562  0.48243  0.24795  Biso   1.000  C 
  H31      1.0000 0.20880  0.45970  0.26050  Biso   1.000  H 
  C58      1.0000 0.23440  0.48210  0.20612  Biso   1.000  C 
  H32      1.0000 0.20640  0.45950  0.19020  Biso   1.000  H 
  N10      1.0000 0.27148  0.51261  0.18702  Biso   1.000  N 
  C59      1.0000 0.31270  0.54424  0.21061  Biso   1.000  C 
  H33      1.0000 0.34070  0.56520  0.19720  Biso   1.000  H 
  C60      1.0000 0.31520  0.54694  0.25285  Biso   1.000  C 
  H34      1.0000 0.34340  0.56980  0.26830  Biso   1.000  H 
  O11      1.0000 0.18455  0.43908  0.53786  Biso   1.000  O 
  C61      1.0000 0.17699  0.41854  0.57120  Biso   1.000  C 
  C62      1.0000 0.13870  0.37155  0.56895  Biso   1.000  C 
  C63      1.0000 0.11718  0.35043  0.53041  Biso   1.000  C 
  C64      1.0000 0.08394  0.30675  0.52870  Biso   1.000  C 
  C65      1.0000 0.07070  0.28416  0.56460  Biso   1.000  C 
  C66      1.0000 0.09190  0.30546  0.60284  Biso   1.000  C 
  C67      1.0000 0.12510  0.34855  0.60458  Biso   1.000  C 
  H35      1.0000 0.13910  0.36300  0.63070  Biso   1.000  H 
  H36      1.0000 0.08320  0.28980  0.62760  Biso   1.000  H 
  N11      1.0000 0.03240  0.23982  0.55888  Biso   1.000  N 
  N12      1.0000 0.02075  0.22086  0.59192  Biso   1.000  N 
  C68      1.0000 0.98000  0.17885  0.58637  Biso   1.000  C 
  C69      1.0000 0.95190  0.16158  0.54887  Biso   1.000  C 
  C70      1.0000 0.91080  0.12072  0.54662  Biso   1.000  C 
  H37      1.0000 0.89140  0.10870  0.52060  Biso   1.000  H 
  C71      1.0000 0.89871  0.09789  0.58253  Biso   1.000  C 
  C72      1.0000 0.84991  0.05606  0.58010  Biso   1.000  C 
  O12      1.0000 0.82599  0.04219  0.54486  Biso   1.000  O 
  O13      1.0000 0.83352  0.03964  0.61399  Biso   1.000  O 
  Zn7      1.0000 0.76693  0.98729  0.62430  Biso   1.000  Zn
  O14      1.0000 0.69891  0.93397  0.60603  Biso   1.000  O 
  O15      1.0000 0.83768  0.93606  0.61778  Biso   1.000  O 
  C73      1.0000 0.84618  0.91940  0.58319  Biso   1.000  C 
  C74      1.0000 0.88730  0.87498  0.58099  Biso   1.000  C 
  C75      1.0000 0.91230  0.85197  0.61688  Biso   1.000  C 
  H38      1.0000 0.90470  0.86490  0.64290  Biso   1.000  H 
  C76      1.0000 0.94910  0.80908  0.61463  Biso   1.000  C 
  H39      1.0000 0.96690  0.79240  0.63910  Biso   1.000  H 
  C77      1.0000 0.95910  0.79123  0.57560  Biso   1.000  C 
  N13      1.0000 0.99720  0.74386  0.56462  Biso   1.000  N 
  N14      1.0000 0.00440  0.72604  0.59461  Biso   1.000  N 
  C78      1.0000 0.04630  0.67896  0.58361  Biso   1.000  C 
  C79      1.0000 0.06860  0.66735  0.54703  Biso   1.000  C 
  C80      1.0000 0.10860  0.62525  0.54456  Biso   1.000  C 
  C81      1.0000 0.12649  0.59949  0.58067  Biso   1.000  C 
  C82      1.0000 0.17308  0.55667  0.57940  Biso   1.000  C 
  O16      1.0000 0.18711  0.54328  0.54488  Biso   1.000  O 
  O17      1.0000 0.19477  0.53778  0.61380  Biso   1.000  O 
  Zn8      1.0000 0.26693  0.48729  0.62430  Biso   1.000  Zn
  O18      1.0000 0.19891  0.43397  0.60603  Biso   1.000  O 
  O19      1.0000 0.33768  0.43606  0.61778  Biso   1.000  O 
  C83      1.0000 0.34618  0.41940  0.58319  Biso   1.000  C 
  C84      1.0000 0.38730  0.37498  0.58099  Biso   1.000  C 
  C85      1.0000 0.39960  0.35734  0.54240  Biso   1.000  C 
  H40      1.0000 0.38360  0.37470  0.51800  Biso   1.000  H 
  C86      1.0000 0.43420  0.31573  0.53977  Biso   1.000  C 
  C87      1.0000 0.45910  0.29123  0.57560  Biso   1.000  C 
  C88      1.0000 0.44910  0.30908  0.61463  Biso   1.000  C 
  C89      1.0000 0.41230  0.35197  0.61688  Biso   1.000  C 
  H41      1.0000 0.40470  0.36490  0.64290  Biso   1.000  H 
  H42      1.0000 0.46690  0.29240  0.63910  Biso   1.000  H 
  N15      1.0000 0.49720  0.24386  0.56462  Biso   1.000  N 
  N16      1.0000 0.50440  0.22604  0.59461  Biso   1.000  N 
  C90      1.0000 0.54630  0.17896  0.58361  Biso   1.000  C 
  C91      1.0000 0.56100  0.14992  0.61846  Biso   1.000  C 
  H43      1.0000 0.54240  0.15710  0.64320  Biso   1.000  H 
  C92      1.0000 0.60150  0.11190  0.61675  Biso   1.000  C 
  H44      1.0000 0.61340  0.09290  0.64090  Biso   1.000  H 
  C93      1.0000 0.62649  0.09949  0.58067  Biso   1.000  C 
  C94      1.0000 0.67308  0.05667  0.57940  Biso   1.000  C 
  O20      1.0000 0.68711  0.04328  0.54488  Biso   1.000  O 
  O21      1.0000 0.69477  0.03778  0.61380  Biso   1.000  O 
  C95      1.0000 0.60860  0.12525  0.54456  Biso   1.000  C 
  H45      1.0000 0.62250  0.11510  0.51910  Biso   1.000  H 
  C96      1.0000 0.56860  0.16735  0.54703  Biso   1.000  C 
  H46      1.0000 0.55750  0.18730  0.52340  Biso   1.000  H 
  H47      1.0000 0.44150  0.30320  0.51350  Biso   1.000  H 
  O22      1.0000 0.32182  0.43802  0.54937  Biso   1.000  O 
  N17      1.0000 0.27148  0.48739  0.68702  Biso   1.000  N 
  C97      1.0000 0.31270  0.45576  0.71061  Biso   1.000  C 
  H48      1.0000 0.34070  0.43480  0.69720  Biso   1.000  H 
  C98      1.0000 0.31520  0.45306  0.75285  Biso   1.000  C 
  H49      1.0000 0.34340  0.43020  0.76830  Biso   1.000  H 
  C99      1.0000 0.27451  0.48539  0.77263  Biso   1.000  C 
  C100     1.0000 0.27800  0.48282  0.81788  Biso   1.000  C 
  H50      1.0000 0.30570  0.45870  0.83210  Biso   1.000  H 
  C101     1.0000 0.24380  0.51295  0.84014  Biso   1.000  C 
  H51      1.0000 0.21650  0.53730  0.82600  Biso   1.000  H 
  C102     1.0000 0.24670  0.50999  0.88512  Biso   1.000  C 
  C103     1.0000 0.27180  0.47038  0.90829  Biso   1.000  C 
  C104     1.0000 0.27160  0.46877  0.94969  Biso   1.000  C 
  H52      1.0000 0.28490  0.43990  0.96450  Biso   1.000  H 
  N18      1.0000 0.25242  0.50849  0.97030  Biso   1.000  N 
  C105     1.0000 0.23020  0.54762  0.94873  Biso   1.000  C 
  C106     1.0000 0.22760  0.54977  0.90684  Biso   1.000  C 
  H53      1.0000 0.21270  0.57860  0.89250  Biso   1.000  H 
  H54      1.0000 0.21560  0.57490  0.96310  Biso   1.000  H 
  H55      1.0000 0.28950  0.44370  0.89470  Biso   1.000  H 
  C107     1.0000 0.23562  0.51757  0.74795  Biso   1.000  C 
  H56      1.0000 0.20880  0.54030  0.76050  Biso   1.000  H 
  C108     1.0000 0.23440  0.51790  0.70612  Biso   1.000  C 
  H57      1.0000 0.20640  0.54050  0.69020  Biso   1.000  H 
  O23      1.0000 0.33352  0.53964  0.61399  Biso   1.000  O 
  C109     1.0000 0.10150  0.61190  0.61675  Biso   1.000  C 
  H58      1.0000 0.11340  0.59290  0.64090  Biso   1.000  H 
  C110     1.0000 0.06100  0.64992  0.61846  Biso   1.000  C 
  H59      1.0000 0.04240  0.65710  0.64320  Biso   1.000  H 
  H60      1.0000 0.12250  0.61510  0.51910  Biso   1.000  H 
  H61      1.0000 0.05750  0.68730  0.52340  Biso   1.000  H 
  C111     1.0000 0.93420  0.81573  0.53977  Biso   1.000  C 
  H62      1.0000 0.94150  0.80320  0.51350  Biso   1.000  H 
  C112     1.0000 0.89960  0.85734  0.54240  Biso   1.000  C 
  H63      1.0000 0.88360  0.87470  0.51800  Biso   1.000  H 
  O24      1.0000 0.82182  0.93802  0.54937  Biso   1.000  O 
  N19      1.0000 0.77148  0.98739  0.68702  Biso   1.000  N 
  C113     1.0000 0.81270  0.95576  0.71061  Biso   1.000  C 
  H64      1.0000 0.84070  0.93480  0.69720  Biso   1.000  H 
  C114     1.0000 0.81520  0.95306  0.75285  Biso   1.000  C 
  H65      1.0000 0.84340  0.93020  0.76830  Biso   1.000  H 
  C115     1.0000 0.77451  0.98539  0.77263  Biso   1.000  C 
  C116     1.0000 0.77800  0.98282  0.81788  Biso   1.000  C 
  H66      1.0000 0.80570  0.95870  0.83210  Biso   1.000  H 
  C117     1.0000 0.74380  0.01295  0.84014  Biso   1.000  C 
  H67      1.0000 0.71650  0.03730  0.82600  Biso   1.000  H 
  C118     1.0000 0.74670  0.00999  0.88512  Biso   1.000  C 
  C119     1.0000 0.72760  0.04977  0.90684  Biso   1.000  C 
  H68      1.0000 0.71270  0.07860  0.89250  Biso   1.000  H 
  C120     1.0000 0.73020  0.04762  0.94873  Biso   1.000  C 
  H69      1.0000 0.71560  0.07490  0.96310  Biso   1.000  H 
  N20      1.0000 0.75242  0.00849  0.97030  Biso   1.000  N 
  C121     1.0000 0.77160  0.96877  0.94969  Biso   1.000  C 
  H70      1.0000 0.78490  0.93990  0.96450  Biso   1.000  H 
  C122     1.0000 0.77180  0.97038  0.90829  Biso   1.000  C 
  H71      1.0000 0.78950  0.94370  0.89470  Biso   1.000  H 
  C123     1.0000 0.73562  0.01757  0.74795  Biso   1.000  C 
  H72      1.0000 0.70880  0.04030  0.76050  Biso   1.000  H 
  C124     1.0000 0.73440  0.01790  0.70612  Biso   1.000  C 
  H73      1.0000 0.70640  0.04050  0.69020  Biso   1.000  H 
  C125     1.0000 0.92720  0.11430  0.61953  Biso   1.000  C 
  H74      1.0000 0.91790  0.09860  0.64420  Biso   1.000  H 
  C126     1.0000 0.97100  0.15488  0.62194  Biso   1.000  C 
  H75      1.0000 0.99360  0.16520  0.64780  Biso   1.000  H 
  H76      1.0000 0.96040  0.17760  0.52420  Biso   1.000  H 
  H77      1.0000 0.07000  0.29200  0.50270  Biso   1.000  H 
  H78      1.0000 0.12560  0.36630  0.50560  Biso   1.000  H 
  C127     1.0000 0.42720  0.61430  0.61953  Biso   1.000  C 
  H79      1.0000 0.41790  0.59860  0.64420  Biso   1.000  H 
  C128     1.0000 0.47100  0.65488  0.62194  Biso   1.000  C 
  H80      1.0000 0.49360  0.66520  0.64780  Biso   1.000  H 
  H81      1.0000 0.46040  0.67760  0.52420  Biso   1.000  H 
  C129     1.0000 0.58394  0.80675  0.52870  Biso   1.000  C 
  H82      1.0000 0.57000  0.79200  0.50270  Biso   1.000  H 
  C130     1.0000 0.61718  0.85043  0.53041  Biso   1.000  C 
  H83      1.0000 0.62560  0.86630  0.50560  Biso   1.000  H 
  C131     1.0000 0.73562  0.98243  0.24795  Biso   1.000  C 
  H84      1.0000 0.70880  0.95970  0.26050  Biso   1.000  H 
  C132     1.0000 0.73440  0.98210  0.20612  Biso   1.000  C 
  H85      1.0000 0.70640  0.95950  0.19020  Biso   1.000  H 
  H86      1.0000 0.84070  0.06520  0.19720  Biso   1.000  H 
  O25      1.0000 0.69477  0.96222  0.11380  Biso   1.000  O 
  C133     1.0000 0.67308  0.94333  0.07940  Biso   1.000  C 
  O26      1.0000 0.68711  0.95672  0.04488  Biso   1.000  O 
  C134     1.0000 0.62649  0.90051  0.08067  Biso   1.000  C 
  C135     1.0000 0.60150  0.88810  0.11675  Biso   1.000  C 
  C136     1.0000 0.56100  0.85008  0.11846  Biso   1.000  C 
  H87      1.0000 0.54240  0.84290  0.14320  Biso   1.000  H 
  C137     1.0000 0.54630  0.82104  0.08361  Biso   1.000  C 
  C138     1.0000 0.56860  0.83265  0.04703  Biso   1.000  C 
  H88      1.0000 0.55750  0.81270  0.02340  Biso   1.000  H 
  C139     1.0000 0.60860  0.87475  0.04456  Biso   1.000  C 
  H89      1.0000 0.62250  0.88490  0.01910  Biso   1.000  H 
  N21      1.0000 0.50440  0.77396  0.09461  Biso   1.000  N 
  N22      1.0000 0.49720  0.75614  0.06462  Biso   1.000  N 
  C140     1.0000 0.45910  0.70877  0.07560  Biso   1.000  C 
  C141     1.0000 0.44910  0.69092  0.11463  Biso   1.000  C 
  C142     1.0000 0.41230  0.64803  0.11688  Biso   1.000  C 
  H90      1.0000 0.40470  0.63510  0.14290  Biso   1.000  H 
  C143     1.0000 0.38730  0.62502  0.08099  Biso   1.000  C 
  C144     1.0000 0.39960  0.64266  0.04240  Biso   1.000  C 
  C145     1.0000 0.43420  0.68427  0.03977  Biso   1.000  C 
  H91      1.0000 0.44150  0.69680  0.01350  Biso   1.000  H 
  H92      1.0000 0.38360  0.62530  0.01800  Biso   1.000  H 
  C146     1.0000 0.34618  0.58060  0.08319  Biso   1.000  C 
  O27      1.0000 0.32182  0.56198  0.04937  Biso   1.000  O 
  O28      1.0000 0.33768  0.56394  0.11778  Biso   1.000  O 
  H93      1.0000 0.46690  0.70760  0.13910  Biso   1.000  H 
  H94      1.0000 0.61340  0.90710  0.14090  Biso   1.000  H 
  O29      1.0000 0.83352  0.96036  0.11399  Biso   1.000  O 
  C147     1.0000 0.84991  0.94394  0.08010  Biso   1.000  C 
  O30      1.0000 0.82599  0.95781  0.04486  Biso   1.000  O 
  C148     1.0000 0.89871  0.90211  0.08253  Biso   1.000  C 
  C149     1.0000 0.92720  0.88570  0.11953  Biso   1.000  C 
  H95      1.0000 0.91790  0.90140  0.14420  Biso   1.000  H 
  C150     1.0000 0.97100  0.84512  0.12194  Biso   1.000  C 
  H96      1.0000 0.99360  0.83480  0.14780  Biso   1.000  H 
  C151     1.0000 0.98000  0.82115  0.08637  Biso   1.000  C 
  C152     1.0000 0.95190  0.83842  0.04887  Biso   1.000  C 
  H97      1.0000 0.96040  0.82240  0.02420  Biso   1.000  H 
  C153     1.0000 0.91080  0.87928  0.04662  Biso   1.000  C 
  H98      1.0000 0.89140  0.89130  0.02060  Biso   1.000  H 
  N23      1.0000 0.02075  0.77914  0.09192  Biso   1.000  N 
  N24      1.0000 0.03240  0.76018  0.05888  Biso   1.000  N 
  C154     1.0000 0.07070  0.71584  0.06460  Biso   1.000  C 
  C155     1.0000 0.09190  0.69454  0.10284  Biso   1.000  C 
  C156     1.0000 0.12510  0.65145  0.10458  Biso   1.000  C 
  H99      1.0000 0.13910  0.63700  0.13070  Biso   1.000  H 
  C157     1.0000 0.13870  0.62845  0.06895  Biso   1.000  C 
  C158     1.0000 0.11718  0.64957  0.03041  Biso   1.000  C 
  H100     1.0000 0.12560  0.63370  0.00560  Biso   1.000  H 
  C159     1.0000 0.08394  0.69325  0.02870  Biso   1.000  C 
  H101     1.0000 0.07000  0.70800  0.00270  Biso   1.000  H 
  C160     1.0000 0.17699  0.58146  0.07120  Biso   1.000  C 
  O31      1.0000 0.18455  0.56092  0.03786  Biso   1.000  O 
  O32      1.0000 0.19891  0.56603  0.10603  Biso   1.000  O 
  H102     1.0000 0.08320  0.71020  0.12760  Biso   1.000  H 
  H103     1.0000 0.58320  0.21020  0.12760  Biso   1.000  H 
  H104     1.0000 0.41790  0.40140  0.14420  Biso   1.000  H 
