data_image0
_cell_length_a       15.643
_cell_length_b       13.5082
_cell_length_c       20.8
_cell_angle_alpha    90
_cell_angle_beta     98.469
_cell_angle_gamma    90

_symmetry_space_group_name_H-M    "P 1"
_symmetry_int_tables_number       1

loop_
  _symmetry_equiv_pos_as_xyz
  'x, y, z'

loop_
  _atom_site_label
  _atom_site_occupancy
  _atom_site_fract_x
  _atom_site_fract_y
  _atom_site_fract_z
  _atom_site_thermal_displace_type
  _atom_site_B_iso_or_equiv
  _atom_site_type_symbol
  Co1      1.0000 0.39469  0.65961  0.08651  Biso   1.000  Co
  O1       1.0000 0.42430  0.62800  0.19041  Biso   1.000  O 
  C1       1.0000 0.40530  0.69660  0.23910  Biso   1.000  C 
  H1       1.0000 0.36680  0.74680  0.21910  Biso   1.000  H 
  H2       1.0000 0.37850  0.66200  0.27120  Biso   1.000  H 
  H3       1.0000 0.45790  0.72680  0.25950  Biso   1.000  H 
  C2       1.0000 0.49470  0.56750  0.20520  Biso   1.000  C 
  C3       1.0000 0.51720  0.51840  0.14990  Biso   1.000  C 
  O2       1.0000 0.47138  0.54040  0.09138  Biso   1.000  O 
  Co2      1.0000 0.50000  0.50000  0.00000  Biso   1.000  Co
  O3       1.0000 0.52862  0.45960  0.90862  Biso   1.000  O 
  C4       1.0000 0.48280  0.48160  0.85010  Biso   1.000  C 
  C5       1.0000 0.50530  0.43250  0.79480  Biso   1.000  C 
  C6       1.0000 0.46120  0.44700  0.73350  Biso   1.000  C 
  H4       1.0000 0.47810  0.41410  0.69810  Biso   1.000  H 
  C7       1.0000 0.39060  0.51170  0.72450  Biso   1.000  C 
  H5       1.0000 0.35950  0.52120  0.68330  Biso   1.000  H 
  C8       1.0000 0.36770  0.56100  0.77700  Biso   1.000  C 
  H6       1.0000 0.32070  0.60400  0.77070  Biso   1.000  H 
  C9       1.0000 0.41260  0.54880  0.83960  Biso   1.000  C 
  C10      1.0000 0.38200  0.60540  0.89220  Biso   1.000  C 
  C11      1.0000 0.30880  0.70450  0.94070  Biso   1.000  C 
  C12      1.0000 0.24210  0.77610  0.95290  Biso   1.000  C 
  C13      1.0000 0.16650  0.78420  0.90990  Biso   1.000  C 
  H7       1.0000 0.15850  0.74690  0.87180  Biso   1.000  H 
  C14      1.0000 0.10300  0.84780  0.92360  Biso   1.000  C 
  H8       1.0000 0.05270  0.85250  0.89370  Biso   1.000  H 
  N1       1.0000 0.10910  0.90340  0.97733  Biso   1.000  N 
  Co3      1.0000 0.00000  0.00000  0.00000  Biso   1.000  Co
  O4       1.0000 0.93173  0.96530  0.90818  Biso   1.000  O 
  Co4      1.0000 0.85949  0.84367  0.91059  Biso   1.000  Co
  O5       1.0000 0.73481  0.87670  0.91191  Biso   1.000  O 
  C15      1.0000 0.66430  0.83170  0.90200  Biso   1.000  C 
  H9       1.0000 0.65880  0.77840  0.87340  Biso   1.000  H 
  N2       1.0000 0.59790  0.85620  0.93010  Biso   1.000  N 
  C16      1.0000 0.51780  0.80090  0.91860  Biso   1.000  C 
  H10      1.0000 0.52240  0.74970  0.88730  Biso   1.000  H 
  H11      1.0000 0.50660  0.77170  0.95860  Biso   1.000  H 
  H12      1.0000 0.47130  0.84470  0.90230  Biso   1.000  H 
  C17      1.0000 0.60370  0.93660  0.97630  Biso   1.000  C 
  H13      1.0000 0.66280  0.94510  0.99580  Biso   1.000  H 
  H14      1.0000 0.58320  0.99640  0.95440  Biso   1.000  H 
  H15      1.0000 0.56900  0.92160  0.00950  Biso   1.000  H 
  Cl1      1.0000 0.91015  0.69642  0.87854  Biso   1.000  Cl
  O6       1.0000 0.83290  0.89310  0.80861  Biso   1.000  O 
  C18      1.0000 0.88930  0.96560  0.79390  Biso   1.000  C 
  C19      1.0000 0.89470  0.99890  0.73250  Biso   1.000  C 
  H16      1.0000 0.85910  0.97220  0.69690  Biso   1.000  H 
  C20      1.0000 0.95340  0.07260  0.72350  Biso   1.000  C 
  H17      1.0000 0.95740  0.09550  0.68200  Biso   1.000  H 
  C21      1.0000 0.00590  0.11190  0.77680  Biso   1.000  C 
  H18      1.0000 0.04550  0.16110  0.77060  Biso   1.000  H 
  C22      1.0000 0.00060  0.07870  0.84040  Biso   1.000  C 
  C23      1.0000 0.05810  0.12670  0.89350  Biso   1.000  C 
  C24      1.0000 0.15510  0.21780  0.94390  Biso   1.000  C 
  C25      1.0000 0.23100  0.28390  0.95810  Biso   1.000  C 
  C26      1.0000 0.29180  0.28490  0.91590  Biso   1.000  C 
  H19      1.0000 0.28260  0.24850  0.87760  Biso   1.000  H 
  C27      1.0000 0.36560  0.34000  0.93120  Biso   1.000  C 
  H20      1.0000 0.40550  0.33930  0.90220  Biso   1.000  H 
  N3       1.0000 0.38420  0.39480  0.98528  Biso   1.000  N 
  C28      1.0000 0.32460  0.39500  0.02520  Biso   1.000  C 
  H21      1.0000 0.33510  0.43290  0.06290  Biso   1.000  H 
  C29      1.0000 0.24760  0.34170  0.01360  Biso   1.000  C 
  H22      1.0000 0.20790  0.34480  0.04280  Biso   1.000  H 
  N4       1.0000 0.12050  0.19240  0.88312  Biso   1.000  N 
  N5       1.0000 0.11790  0.17250  0.98984  Biso   1.000  N 
  N6       1.0000 0.05490  0.11330  0.95674  Biso   1.000  N 
  Co5      1.0000 0.14051  0.15633  0.08941  Biso   1.000  Co
  O7       1.0000 0.06827  0.03470  0.09182  Biso   1.000  O 
  C30      1.0000 0.05900  0.99610  0.15010  Biso   1.000  C 
  C31      1.0000 0.99940  0.92130  0.15960  Biso   1.000  C 
  C32      1.0000 0.94190  0.87330  0.10650  Biso   1.000  C 
  C33      1.0000 0.84490  0.78220  0.05610  Biso   1.000  C 
  C34      1.0000 0.76900  0.71610  0.04190  Biso   1.000  C 
  C35      1.0000 0.70820  0.71510  0.08410  Biso   1.000  C 
  C36      1.0000 0.63440  0.66000  0.06880  Biso   1.000  C 
  H23      1.0000 0.59450  0.66070  0.09780  Biso   1.000  H 
  N7       1.0000 0.61580  0.60520  0.01472  Biso   1.000  N 
  C37      1.0000 0.67540  0.60500  0.97480  Biso   1.000  C 
  H24      1.0000 0.66490  0.56710  0.93710  Biso   1.000  H 
  C38      1.0000 0.75240  0.65830  0.98640  Biso   1.000  C 
  H25      1.0000 0.79210  0.65520  0.95720  Biso   1.000  H 
  H26      1.0000 0.71740  0.75150  0.12240  Biso   1.000  H 
  N8       1.0000 0.87950  0.80760  0.11688  Biso   1.000  N 
  N9       1.0000 0.88210  0.82750  0.01016  Biso   1.000  N 
  N10      1.0000 0.94510  0.88670  0.04326  Biso   1.000  N 
  C39      1.0000 0.99410  0.88810  0.22320  Biso   1.000  C 
  H27      1.0000 0.95450  0.83890  0.22940  Biso   1.000  H 
  C40      1.0000 0.04660  0.92740  0.27650  Biso   1.000  C 
  H28      1.0000 0.04260  0.90450  0.31800  Biso   1.000  H 
  C41      1.0000 0.10530  0.00110  0.26750  Biso   1.000  C 
  H29      1.0000 0.14090  0.02780  0.30310  Biso   1.000  H 
  C42      1.0000 0.11070  0.03440  0.20610  Biso   1.000  C 
  O8       1.0000 0.16710  0.10690  0.19139  Biso   1.000  O 
  C43      1.0000 0.21180  0.16230  0.24460  Biso   1.000  C 
  H30      1.0000 0.24440  0.21430  0.22820  Biso   1.000  H 
  H31      1.0000 0.17070  0.19050  0.26940  Biso   1.000  H 
  H32      1.0000 0.25030  0.11930  0.27190  Biso   1.000  H 
  O9       1.0000 0.26519  0.12330  0.08809  Biso   1.000  O 
  C44      1.0000 0.33570  0.16830  0.09800  Biso   1.000  C 
  H33      1.0000 0.34120  0.22160  0.12660  Biso   1.000  H 
  N11      1.0000 0.40210  0.14380  0.06990  Biso   1.000  N 
  C45      1.0000 0.39630  0.06340  0.02370  Biso   1.000  C 
  H34      1.0000 0.33720  0.05490  0.00420  Biso   1.000  H 
  H35      1.0000 0.41680  0.00360  0.04560  Biso   1.000  H 
  H36      1.0000 0.43100  0.07840  0.99050  Biso   1.000  H 
  C46      1.0000 0.48220  0.19910  0.08140  Biso   1.000  C 
  H37      1.0000 0.47760  0.25030  0.11270  Biso   1.000  H 
  H38      1.0000 0.49340  0.22830  0.04140  Biso   1.000  H 
  H39      1.0000 0.52870  0.15530  0.09770  Biso   1.000  H 
  Cl2      1.0000 0.08985  0.30358  0.12146  Biso   1.000  Cl
  C47      1.0000 0.94100  0.00390  0.84990  Biso   1.000  C 
  C48      1.0000 0.78820  0.83770  0.75540  Biso   1.000  C 
  H40      1.0000 0.74970  0.88070  0.72810  Biso   1.000  H 
  H41      1.0000 0.82930  0.80950  0.73060  Biso   1.000  H 
  H42      1.0000 0.75560  0.78570  0.77180  Biso   1.000  H 
  N12      1.0000 0.89090  0.09660  0.02267  Biso   1.000  N 
  C49      1.0000 0.89700  0.15220  0.07640  Biso   1.000  C 
  H43      1.0000 0.94730  0.14750  0.10630  Biso   1.000  H 
  C50      1.0000 0.83350  0.21580  0.09010  Biso   1.000  C 
  H44      1.0000 0.84150  0.25310  0.12820  Biso   1.000  H 
  C51      1.0000 0.75790  0.22390  0.04710  Biso   1.000  C 
  C52      1.0000 0.74950  0.16330  0.99280  Biso   1.000  C 
  H45      1.0000 0.69850  0.16340  0.96350  Biso   1.000  H 
  C53      1.0000 0.81700  0.10280  0.98250  Biso   1.000  C 
  H46      1.0000 0.81030  0.06410  0.94510  Biso   1.000  H 
  C54      1.0000 0.69120  0.29550  0.05930  Biso   1.000  C 
  N13      1.0000 0.68340  0.32730  0.11948  Biso   1.000  N 
  C55      1.0000 0.61800  0.39460  0.10780  Biso   1.000  C 
  N14      1.0000 0.58690  0.40190  0.04493  Biso   1.000  N 
  N15      1.0000 0.63430  0.33830  0.01240  Biso   1.000  N 
  Co6      1.0000 0.60531  0.34039  0.91349  Biso   1.000  Co
  Cl3      1.0000 0.53898  0.18943  0.89684  Biso   1.000  Cl
  O10      1.0000 0.72690  0.35060  0.89310  Biso   1.000  O 
  C56      1.0000 0.79360  0.37480  0.92310  Biso   1.000  C 
  H47      1.0000 0.78960  0.40760  0.96190  Biso   1.000  H 
  N16      1.0000 0.87160  0.36260  0.91050  Biso   1.000  N 
  C57      1.0000 0.88330  0.30870  0.85220  Biso   1.000  C 
  H48      1.0000 0.89880  0.24140  0.86320  Biso   1.000  H 
  H49      1.0000 0.83040  0.30970  0.82220  Biso   1.000  H 
  H50      1.0000 0.92840  0.33920  0.83240  Biso   1.000  H 
  C58      1.0000 0.94680  0.39400  0.95450  Biso   1.000  C 
  H51      1.0000 0.97940  0.33700  0.97130  Biso   1.000  H 
  H52      1.0000 0.98220  0.43550  0.93180  Biso   1.000  H 
  H53      1.0000 0.92890  0.43050  0.98990  Biso   1.000  H 
  O11      1.0000 0.57570  0.37200  0.80959  Biso   1.000  O 
  C59      1.0000 0.59470  0.30340  0.76090  Biso   1.000  C 
  H54      1.0000 0.62150  0.33800  0.72880  Biso   1.000  H 
  H55      1.0000 0.54210  0.27320  0.74050  Biso   1.000  H 
  H56      1.0000 0.63320  0.25320  0.78090  Biso   1.000  H 
  C60      1.0000 0.58740  0.45120  0.16040  Biso   1.000  C 
  C61      1.0000 0.63230  0.43900  0.22300  Biso   1.000  C 
  H57      1.0000 0.67930  0.39600  0.22930  Biso   1.000  H 
  C62      1.0000 0.60940  0.48830  0.27550  Biso   1.000  C 
  H58      1.0000 0.64050  0.47880  0.31670  Biso   1.000  H 
  C63      1.0000 0.53880  0.55300  0.26650  Biso   1.000  C 
  H59      1.0000 0.52190  0.58590  0.30190  Biso   1.000  H 
  C64      1.0000 0.18300  0.89720  0.01750  Biso   1.000  C 
  H60      1.0000 0.18970  0.93590  0.05490  Biso   1.000  H 
  C65      1.0000 0.25050  0.83670  0.00720  Biso   1.000  C 
  H61      1.0000 0.30150  0.83660  0.03650  Biso   1.000  H 
  N17      1.0000 0.31660  0.67270  0.88052  Biso   1.000  N 
  N18      1.0000 0.36570  0.66170  0.98760  Biso   1.000  N 
  N19      1.0000 0.41310  0.59810  0.95507  Biso   1.000  N 
  O12      1.0000 0.27310  0.64940  0.10690  Biso   1.000  O 
  C66      1.0000 0.20640  0.62520  0.07690  Biso   1.000  C 
  H62      1.0000 0.21040  0.59240  0.03810  Biso   1.000  H 
  N20      1.0000 0.12840  0.63740  0.08950  Biso   1.000  N 
  C67      1.0000 0.05320  0.60600  0.04550  Biso   1.000  C 
  H63      1.0000 0.07110  0.56950  0.01010  Biso   1.000  H 
  H64      1.0000 0.01780  0.56450  0.06820  Biso   1.000  H 
  H65      1.0000 0.02060  0.66300  0.02870  Biso   1.000  H 
  C68      1.0000 0.11670  0.69130  0.14780  Biso   1.000  C 
  H66      1.0000 0.07160  0.66080  0.16760  Biso   1.000  H 
  H67      1.0000 0.16960  0.69030  0.17780  Biso   1.000  H 
  H68      1.0000 0.10120  0.75860  0.13680  Biso   1.000  H 
  Cl4      1.0000 0.46102  0.81057  0.10316  Biso   1.000  Cl
