data_image0
_cell_length_a       17.8312
_cell_length_b       20.2445
_cell_length_c       17.8312
_cell_angle_alpha    90
_cell_angle_beta     93.47
_cell_angle_gamma    90

_symmetry_space_group_name_H-M    "P 1"
_symmetry_int_tables_number       1

loop_
  _symmetry_equiv_pos_as_xyz
  'x, y, z'

loop_
  _atom_site_label
  _atom_site_occupancy
  _atom_site_fract_x
  _atom_site_fract_y
  _atom_site_fract_z
  _atom_site_thermal_displace_type
  _atom_site_B_iso_or_equiv
  _atom_site_type_symbol
  C1       1.0000 0.51490  0.03160  0.98620  Biso   1.000  C 
  C2       1.0000 0.57080  0.03220  0.93300  Biso   1.000  C 
  C3       1.0000 0.59460  0.08850  0.90770  Biso   1.000  C 
  H1       1.0000 0.63120  0.08710  0.87110  Biso   1.000  H 
  N1       1.0000 0.57100  0.14920  0.92980  Biso   1.000  N 
  Fe1      1.0000 0.61563  0.23884  0.88421  Biso   1.000  Fe
  O1       1.0000 0.62240  0.27110  0.99200  Biso   1.000  O 
  C4       1.0000 0.66160  0.31610  0.02450  Biso   1.000  C 
  C5       1.0000 0.65170  0.32680  0.10870  Biso   1.000  C 
  C6       1.0000 0.57020  0.30260  0.12650  Biso   1.000  C 
  H2       1.0000 0.56590  0.25500  0.11720  Biso   1.000  H 
  H3       1.0000 0.56150  0.31180  0.17920  Biso   1.000  H 
  H4       1.0000 0.53270  0.32610  0.09400  Biso   1.000  H 
  C7       1.0000 0.71590  0.29910  0.14970  Biso   1.000  C 
  H5       1.0000 0.72000  0.25210  0.13720  Biso   1.000  H 
  H6       1.0000 0.71010  0.30390  0.20370  Biso   1.000  H 
  H7       1.0000 0.76130  0.32220  0.13610  Biso   1.000  H 
  C8       1.0000 0.64480  0.40030  0.12330  Biso   1.000  C 
  H8       1.0000 0.64450  0.40820  0.17750  Biso   1.000  H 
  H9       1.0000 0.68750  0.42340  0.10310  Biso   1.000  H 
  H10      1.0000 0.59790  0.41680  0.09850  Biso   1.000  H 
  O2       1.0000 0.70910  0.35020  0.99550  Biso   1.000  O 
  Ni1      1.0000 0.74352  0.35302  0.88997  Biso   1.000  Ni
  N2       1.0000 0.84400  0.40110  0.93960  Biso   1.000  N 
  C9       1.0000 0.91060  0.39280  0.91170  Biso   1.000  C 
  H11      1.0000 0.91490  0.35980  0.87440  Biso   1.000  H 
  C10      1.0000 0.97460  0.42920  0.93350  Biso   1.000  C 
  C11      1.0000 0.96740  0.47940  0.98710  Biso   1.000  C 
  C12      1.0000 0.89820  0.48680  0.01690  Biso   1.000  C 
  H12      1.0000 0.89170  0.51950  0.05420  Biso   1.000  H 
  C13      1.0000 0.83830  0.44710  0.99310  Biso   1.000  C 
  H13      1.0000 0.79160  0.45260  0.01530  Biso   1.000  H 
  C14      1.0000 0.03260  0.52060  0.01290  Biso   1.000  C 
  C15      1.0000 0.02540  0.57080  0.06650  Biso   1.000  C 
  C16      1.0000 0.08940  0.60720  0.08830  Biso   1.000  C 
  N3       1.0000 0.15600  0.59890  0.06040  Biso   1.000  N 
  Ni2      1.0000 0.25648  0.64698  0.11003  Biso   1.000  Ni
  O3       1.0000 0.34290  0.68460  0.15610  Biso   1.000  O 
  Fe2      1.0000 0.38997  0.64701  0.24362  Biso   1.000  Fe
  N4       1.0000 0.43970  0.59930  0.34560  Biso   1.000  N 
  C17      1.0000 0.41350  0.60760  0.41320  Biso   1.000  C 
  C18      1.0000 0.43420  0.57110  0.47340  Biso   1.000  C 
  C19      1.0000 0.48880  0.52140  0.46930  Biso   1.000  C 
  C20      1.0000 0.51760  0.51400  0.40030  Biso   1.000  C 
  H14      1.0000 0.55580  0.48200  0.39450  Biso   1.000  H 
  C21      1.0000 0.49260  0.55210  0.33770  Biso   1.000  C 
  H15      1.0000 0.51270  0.54480  0.29020  Biso   1.000  H 
  C22      1.0000 0.51120  0.47860  0.53070  Biso   1.000  C 
  C23      1.0000 0.48240  0.48600  0.59970  Biso   1.000  C 
  C24      1.0000 0.50740  0.44790  0.66230  Biso   1.000  C 
  H16      1.0000 0.48730  0.45520  0.70980  Biso   1.000  H 
  N5       1.0000 0.56030  0.40070  0.65440  Biso   1.000  N 
  Fe3      1.0000 0.61003  0.35299  0.75638  Biso   1.000  Fe
  O4       1.0000 0.65710  0.31540  0.84390  Biso   1.000  O 
  O5       1.0000 0.59030  0.26850  0.69920  Biso   1.000  O 
  C25      1.0000 0.58470  0.20980  0.72040  Biso   1.000  C 
  O6       1.0000 0.59780  0.19070  0.78590  Biso   1.000  O 
  C26      1.0000 0.55860  0.16010  0.66210  Biso   1.000  C 
  C27      1.0000 0.47480  0.17250  0.64550  Biso   1.000  C 
  H17      1.0000 0.45520  0.14160  0.60680  Biso   1.000  H 
  H18      1.0000 0.44820  0.16600  0.69140  Biso   1.000  H 
  H19      1.0000 0.46710  0.21790  0.62760  Biso   1.000  H 
  C28      1.0000 0.59920  0.16990  0.59130  Biso   1.000  C 
  H20      1.0000 0.57830  0.14010  0.55210  Biso   1.000  H 
  H21      1.0000 0.59310  0.21580  0.57440  Biso   1.000  H 
  H22      1.0000 0.65280  0.16030  0.60140  Biso   1.000  H 
  C29      1.0000 0.56980  0.09110  0.68940  Biso   1.000  C 
  H23      1.0000 0.55210  0.06020  0.65000  Biso   1.000  H 
  H24      1.0000 0.54140  0.08430  0.73420  Biso   1.000  H 
  H25      1.0000 0.62340  0.08350  0.70220  Biso   1.000  H 
  O7       1.0000 0.50380  0.34980  0.79240  Biso   1.000  O 
  C30      1.0000 0.47480  0.31490  0.84050  Biso   1.000  C 
  C31      1.0000 0.39080  0.32590  0.84840  Biso   1.000  C 
  C32      1.0000 0.37210  0.30370  0.92940  Biso   1.000  C 
  H26      1.0000 0.31870  0.31110  0.93620  Biso   1.000  H 
  H27      1.0000 0.38370  0.25670  0.93590  Biso   1.000  H 
  H28      1.0000 0.40230  0.32950  0.96660  Biso   1.000  H 
  C33      1.0000 0.34720  0.30110  0.78400  Biso   1.000  C 
  H29      1.0000 0.35760  0.25390  0.77790  Biso   1.000  H 
  H30      1.0000 0.29370  0.30730  0.79130  Biso   1.000  H 
  H31      1.0000 0.36070  0.32500  0.73900  Biso   1.000  H 
  C34      1.0000 0.37650  0.39800  0.85770  Biso   1.000  C 
  H32      1.0000 0.32320  0.40520  0.86540  Biso   1.000  H 
  H33      1.0000 0.39010  0.42160  0.81250  Biso   1.000  H 
  H34      1.0000 0.40690  0.41460  0.90130  Biso   1.000  H 
  O8       1.0000 0.50730  0.27110  0.87840  Biso   1.000  O 
  O9       1.0000 0.70730  0.36080  0.70140  Biso   1.000  O 
  C35      1.0000 0.77110  0.35570  0.73180  Biso   1.000  C 
  C36      1.0000 0.83080  0.34050  0.67110  Biso   1.000  C 
  C37      1.0000 0.80400  0.36600  0.59160  Biso   1.000  C 
  H35      1.0000 0.75670  0.34430  0.57520  Biso   1.000  H 
  H36      1.0000 0.84220  0.35610  0.55600  Biso   1.000  H 
  H37      1.0000 0.79610  0.41390  0.59350  Biso   1.000  H 
  C38      1.0000 0.90630  0.36570  0.69330  Biso   1.000  C 
  H38      1.0000 0.94030  0.35620  0.65360  Biso   1.000  H 
  H39      1.0000 0.90370  0.41360  0.70120  Biso   1.000  H 
  H40      1.0000 0.92500  0.34420  0.74000  Biso   1.000  H 
  C39      1.0000 0.83460  0.26710  0.66400  Biso   1.000  C 
  H41      1.0000 0.78620  0.25030  0.64310  Biso   1.000  H 
  H42      1.0000 0.87410  0.25520  0.63060  Biso   1.000  H 
  H43      1.0000 0.84590  0.24750  0.71360  Biso   1.000  H 
  O10      1.0000 0.79810  0.36000  0.79300  Biso   1.000  O 
  O11      1.0000 0.61700  0.44790  0.79340  Biso   1.000  O 
  C40      1.0000 0.65600  0.47220  0.84330  Biso   1.000  C 
  O12      1.0000 0.70810  0.44760  0.88410  Biso   1.000  O 
  C41      1.0000 0.63740  0.54340  0.86140  Biso   1.000  C 
  C42      1.0000 0.57200  0.53470  0.91600  Biso   1.000  C 
  H44      1.0000 0.52890  0.51370  0.88870  Biso   1.000  H 
  H45      1.0000 0.58930  0.50690  0.95840  Biso   1.000  H 
  H46      1.0000 0.55720  0.57810  0.93430  Biso   1.000  H 
  C43      1.0000 0.69770  0.57540  0.91680  Biso   1.000  C 
  H47      1.0000 0.71770  0.54200  0.95240  Biso   1.000  H 
  H48      1.0000 0.67480  0.61130  0.94440  Biso   1.000  H 
  H49      1.0000 0.73870  0.59320  0.88860  Biso   1.000  H 
  C44      1.0000 0.58350  0.57690  0.79950  Biso   1.000  C 
  H50      1.0000 0.56190  0.61710  0.82010  Biso   1.000  H 
  H51      1.0000 0.54300  0.54620  0.78400  Biso   1.000  H 
  H52      1.0000 0.61200  0.58840  0.75600  Biso   1.000  H 
  C45      1.0000 0.58650  0.39240  0.58680  Biso   1.000  C 
  C46      1.0000 0.56580  0.42890  0.52660  Biso   1.000  C 
  H53      1.0000 0.58830  0.42120  0.48040  Biso   1.000  H 
  H54      1.0000 0.62230  0.35830  0.58100  Biso   1.000  H 
  H55      1.0000 0.44420  0.51800  0.60550  Biso   1.000  H 
  H56      1.0000 0.41170  0.57880  0.51960  Biso   1.000  H 
  H57      1.0000 0.37770  0.64170  0.41900  Biso   1.000  H 
  O13      1.0000 0.40970  0.73150  0.30080  Biso   1.000  O 
  C47      1.0000 0.41530  0.79020  0.27960  Biso   1.000  C 
  O14      1.0000 0.40220  0.80930  0.21410  Biso   1.000  O 
  Fe4      1.0000 0.38437  0.76116  0.11579  Biso   1.000  Fe
  N6       1.0000 0.42900  0.85080  0.07020  Biso   1.000  N 
  C48      1.0000 0.48220  0.85040  0.01870  Biso   1.000  C 
  H58      1.0000 0.50080  0.80950  0.00140  Biso   1.000  H 
  C49      1.0000 0.50950  0.90990  0.99100  Biso   1.000  C 
  H59      1.0000 0.54650  0.90850  0.95490  Biso   1.000  H 
  C50      1.0000 0.48510  0.96840  0.01380  Biso   1.000  C 
  C51      1.0000 0.42920  0.96780  0.06700  Biso   1.000  C 
  H60      1.0000 0.40910  0.00820  0.08420  Biso   1.000  H 
  C52      1.0000 0.40540  0.91150  0.09230  Biso   1.000  C 
  H61      1.0000 0.36880  0.91290  0.12890  Biso   1.000  H 
  O15      1.0000 0.37760  0.72890  0.00800  Biso   1.000  O 
  C53      1.0000 0.33840  0.68390  0.97550  Biso   1.000  C 
  C54      1.0000 0.34830  0.67320  0.89130  Biso   1.000  C 
  C55      1.0000 0.35520  0.59970  0.87670  Biso   1.000  C 
  H62      1.0000 0.31250  0.57660  0.89690  Biso   1.000  H 
  H63      1.0000 0.40210  0.58320  0.90150  Biso   1.000  H 
  H64      1.0000 0.35550  0.59180  0.82250  Biso   1.000  H 
  C56      1.0000 0.42980  0.69740  0.87350  Biso   1.000  C 
  H65      1.0000 0.43850  0.68820  0.82080  Biso   1.000  H 
  H66      1.0000 0.46730  0.67390  0.90600  Biso   1.000  H 
  H67      1.0000 0.43410  0.74500  0.88280  Biso   1.000  H 
  C57      1.0000 0.28410  0.70090  0.85030  Biso   1.000  C 
  H68      1.0000 0.28990  0.69610  0.79630  Biso   1.000  H 
  H69      1.0000 0.23870  0.67780  0.86390  Biso   1.000  H 
  H70      1.0000 0.28000  0.74790  0.86280  Biso   1.000  H 
  O16      1.0000 0.29090  0.64980  0.00450  Biso   1.000  O 
  O17      1.0000 0.28520  0.80950  0.09610  Biso   1.000  O 
  C58      1.0000 0.22220  0.79030  0.08570  Biso   1.000  C 
  O18      1.0000 0.19790  0.73160  0.08980  Biso   1.000  O 
  C59      1.0000 0.16200  0.83910  0.05440  Biso   1.000  C 
  C60      1.0000 0.08790  0.82990  0.09550  Biso   1.000  C 
  H71      1.0000 0.07000  0.78440  0.08890  Biso   1.000  H 
  H72      1.0000 0.09750  0.83920  0.14920  Biso   1.000  H 
  H73      1.0000 0.04960  0.86050  0.07430  Biso   1.000  H 
  C61      1.0000 0.19120  0.90800  0.06360  Biso   1.000  C 
  H74      1.0000 0.15210  0.93940  0.04590  Biso   1.000  H 
  H75      1.0000 0.20510  0.91640  0.11680  Biso   1.000  H 
  H76      1.0000 0.23540  0.91350  0.03420  Biso   1.000  H 
  C62      1.0000 0.14530  0.82510  0.96980  Biso   1.000  C 
  H77      1.0000 0.12260  0.78120  0.96340  Biso   1.000  H 
  H78      1.0000 0.11050  0.85850  0.94840  Biso   1.000  H 
  H79      1.0000 0.19220  0.82670  0.94400  Biso   1.000  H 
  O19      1.0000 0.49270  0.72890  0.12160  Biso   1.000  O 
  C63      1.0000 0.52520  0.68510  0.15950  Biso   1.000  C 
  O20      1.0000 0.49620  0.65020  0.20760  Biso   1.000  O 
  C64      1.0000 0.60920  0.67410  0.15160  Biso   1.000  C 
  C65      1.0000 0.62790  0.69630  0.07060  Biso   1.000  C 
  H80      1.0000 0.68130  0.68890  0.06380  Biso   1.000  H 
  H81      1.0000 0.59770  0.67050  0.03340  Biso   1.000  H 
  H82      1.0000 0.61630  0.74330  0.06410  Biso   1.000  H 
  C66      1.0000 0.62350  0.60200  0.14230  Biso   1.000  C 
  H83      1.0000 0.67680  0.59480  0.13460  Biso   1.000  H 
  H84      1.0000 0.59310  0.58540  0.09870  Biso   1.000  H 
  H85      1.0000 0.60990  0.57840  0.18750  Biso   1.000  H 
  C67      1.0000 0.65280  0.69890  0.21600  Biso   1.000  C 
  H86      1.0000 0.70630  0.69270  0.20870  Biso   1.000  H 
  H87      1.0000 0.63930  0.67500  0.26100  Biso   1.000  H 
  H88      1.0000 0.64240  0.74610  0.22210  Biso   1.000  H 
  C68      1.0000 0.44140  0.83990  0.33790  Biso   1.000  C 
  C69      1.0000 0.43020  0.90890  0.31060  Biso   1.000  C 
  H89      1.0000 0.45860  0.91570  0.26580  Biso   1.000  H 
  H90      1.0000 0.37660  0.91650  0.29780  Biso   1.000  H 
  H91      1.0000 0.44790  0.93980  0.35000  Biso   1.000  H 
  C70      1.0000 0.40080  0.83010  0.40870  Biso   1.000  C 
  H92      1.0000 0.34720  0.83970  0.39860  Biso   1.000  H 
  H93      1.0000 0.40690  0.78420  0.42560  Biso   1.000  H 
  H94      1.0000 0.42170  0.85990  0.44790  Biso   1.000  H 
  C71      1.0000 0.52520  0.82750  0.35450  Biso   1.000  C 
  H95      1.0000 0.53290  0.78210  0.37240  Biso   1.000  H 
  H96      1.0000 0.55180  0.83400  0.30860  Biso   1.000  H 
  H97      1.0000 0.54480  0.85840  0.39320  Biso   1.000  H 
  O21      1.0000 0.29270  0.63920  0.29860  Biso   1.000  O 
  C72      1.0000 0.22890  0.64430  0.26820  Biso   1.000  C 
  C73      1.0000 0.16920  0.65950  0.32890  Biso   1.000  C 
  C74      1.0000 0.19600  0.63400  0.40840  Biso   1.000  C 
  H98      1.0000 0.20390  0.58610  0.40650  Biso   1.000  H 
  H99      1.0000 0.15780  0.64390  0.44400  Biso   1.000  H 
  H100     1.0000 0.24330  0.65570  0.42480  Biso   1.000  H 
  C75      1.0000 0.16540  0.73290  0.33600  Biso   1.000  C 
  H101     1.0000 0.12590  0.74480  0.36940  Biso   1.000  H 
  H102     1.0000 0.21380  0.74970  0.35690  Biso   1.000  H 
  H103     1.0000 0.15410  0.75250  0.28640  Biso   1.000  H 
  C76      1.0000 0.09370  0.63430  0.30670  Biso   1.000  C 
  H104     1.0000 0.05970  0.64380  0.34640  Biso   1.000  H 
  H105     1.0000 0.07500  0.65580  0.26000  Biso   1.000  H 
  H106     1.0000 0.09630  0.58640  0.29880  Biso   1.000  H 
  O22      1.0000 0.20190  0.64000  0.20700  Biso   1.000  O 
  O23      1.0000 0.38300  0.55210  0.20660  Biso   1.000  O 
  C77      1.0000 0.34400  0.52780  0.15670  Biso   1.000  C 
  C78      1.0000 0.36260  0.45660  0.13860  Biso   1.000  C 
  C79      1.0000 0.42800  0.46530  0.08400  Biso   1.000  C 
  H107     1.0000 0.44280  0.42190  0.06570  Biso   1.000  H 
  H108     1.0000 0.41070  0.49310  0.04160  Biso   1.000  H 
  H109     1.0000 0.47110  0.48630  0.11130  Biso   1.000  H 
  C80      1.0000 0.30230  0.42460  0.08320  Biso   1.000  C 
  H110     1.0000 0.26130  0.40680  0.11140  Biso   1.000  H 
  H111     1.0000 0.32520  0.38870  0.05560  Biso   1.000  H 
  H112     1.0000 0.28230  0.45800  0.04760  Biso   1.000  H 
  C81      1.0000 0.41650  0.42310  0.20050  Biso   1.000  C 
  H113     1.0000 0.43810  0.38290  0.17990  Biso   1.000  H 
  H114     1.0000 0.38800  0.41160  0.24400  Biso   1.000  H 
  H115     1.0000 0.45700  0.45380  0.21600  Biso   1.000  H 
  O24      1.0000 0.29190  0.55240  0.11590  Biso   1.000  O 
  C82      1.0000 0.16170  0.55290  0.00690  Biso   1.000  C 
  C83      1.0000 0.10180  0.51320  0.98310  Biso   1.000  C 
  H116     1.0000 0.10830  0.48050  0.94580  Biso   1.000  H 
  H117     1.0000 0.20840  0.54740  0.98470  Biso   1.000  H 
  H118     1.0000 0.08510  0.64020  0.12560  Biso   1.000  H 
  H119     1.0000 0.97860  0.57960  0.08720  Biso   1.000  H 
  H120     1.0000 0.02140  0.42040  0.91280  Biso   1.000  H 
  O25      1.0000 0.80210  0.26840  0.91020  Biso   1.000  O 
  C84      1.0000 0.77780  0.20970  0.91430  Biso   1.000  C 
  O26      1.0000 0.71480  0.19050  0.90390  Biso   1.000  O 
  C85      1.0000 0.83800  0.16090  0.94560  Biso   1.000  C 
  C86      1.0000 0.80880  0.09200  0.93640  Biso   1.000  C 
  H121     1.0000 0.76460  0.08650  0.96580  Biso   1.000  H 
  H122     1.0000 0.79490  0.08360  0.88320  Biso   1.000  H 
  H123     1.0000 0.84790  0.06060  0.95410  Biso   1.000  H 
  C87      1.0000 0.91210  0.17010  0.90450  Biso   1.000  C 
  H124     1.0000 0.90250  0.16080  0.85080  Biso   1.000  H 
  H125     1.0000 0.93000  0.21560  0.91110  Biso   1.000  H 
  H126     1.0000 0.95040  0.13950  0.92570  Biso   1.000  H 
  C88      1.0000 0.85470  0.17490  0.03020  Biso   1.000  C 
  H127     1.0000 0.80780  0.17330  0.05600  Biso   1.000  H 
  H128     1.0000 0.88950  0.14150  0.05160  Biso   1.000  H 
  H129     1.0000 0.87740  0.21880  0.03660  Biso   1.000  H 
  C89      1.0000 0.51780  0.14960  0.98130  Biso   1.000  C 
  H130     1.0000 0.49920  0.19050  0.99860  Biso   1.000  H 
  C90      1.0000 0.49050  0.09010  0.00900  Biso   1.000  C 
  H131     1.0000 0.45350  0.09150  0.04510  Biso   1.000  H 
  H132     1.0000 0.59090  0.99180  0.91580  Biso   1.000  H 
