data_image0
_cell_length_a       20.3474
_cell_length_b       39.859
_cell_length_c       9.3583
_cell_angle_alpha    90
_cell_angle_beta     90
_cell_angle_gamma    90

_symmetry_space_group_name_H-M    "P 1"
_symmetry_int_tables_number       1

loop_
  _symmetry_equiv_pos_as_xyz
  'x, y, z'

loop_
  _atom_site_label
  _atom_site_occupancy
  _atom_site_fract_x
  _atom_site_fract_y
  _atom_site_fract_z
  _atom_site_thermal_displace_type
  _atom_site_B_iso_or_equiv
  _atom_site_type_symbol
  Pb1      1.0000 0.32047  0.13031  0.34188  Biso   1.000  Pb
  N1       1.0000 0.38650  0.09133  0.19770  Biso   1.000  N 
  C1       1.0000 0.44190  0.09923  0.12850  Biso   1.000  C 
  H1       1.0000 0.45430  0.12190  0.12320  Biso   1.000  H 
  C2       1.0000 0.48140  0.07547  0.06460  Biso   1.000  C 
  H2       1.0000 0.52010  0.08210  0.01740  Biso   1.000  H 
  C3       1.0000 0.46390  0.04141  0.07030  Biso   1.000  C 
  C4       1.0000 0.50580  0.01627  0.00280  Biso   1.000  C 
  C5       1.0000 0.49420  0.98373  0.99720  Biso   1.000  C 
  H3       1.0000 0.45530  0.97600  0.04050  Biso   1.000  H 
  C6       1.0000 0.53610  0.95859  0.92970  Biso   1.000  C 
  C7       1.0000 0.51860  0.92453  0.93540  Biso   1.000  C 
  H4       1.0000 0.47990  0.91790  0.98260  Biso   1.000  H 
  C8       1.0000 0.55810  0.90077  0.87150  Biso   1.000  C 
  H5       1.0000 0.54570  0.87810  0.87680  Biso   1.000  H 
  N2       1.0000 0.61350  0.90867  0.80230  Biso   1.000  N 
  C9       1.0000 0.63040  0.94136  0.79670  Biso   1.000  C 
  H6       1.0000 0.66910  0.94730  0.74800  Biso   1.000  H 
  C10      1.0000 0.59410  0.96640  0.85820  Biso   1.000  C 
  H7       1.0000 0.60830  0.98880  0.85220  Biso   1.000  H 
  Pb2      1.0000 0.67953  0.86969  0.65812  Biso   1.000  Pb
  O1       1.0000 0.63850  0.81213  0.53410  Biso   1.000  O 
  C11      1.0000 0.58240  0.82380  0.54920  Biso   1.000  C 
  C12      1.0000 0.52040  0.80430  0.50040  Biso   1.000  C 
  H8       1.0000 0.49150  0.81930  0.44810  Biso   1.000  H 
  H9       1.0000 0.49750  0.79560  0.58350  Biso   1.000  H 
  H10      1.0000 0.53330  0.78580  0.43910  Biso   1.000  H 
  O2       1.0000 0.57120  0.85151  0.60850  Biso   1.000  O 
  N3       1.0000 0.66750  0.83029  0.88450  Biso   1.000  N 
  C13      1.0000 0.66990  0.79730  0.86880  Biso   1.000  C 
  H11      1.0000 0.67020  0.78840  0.77580  Biso   1.000  H 
  C14      1.0000 0.67210  0.77520  0.98260  Biso   1.000  C 
  H12      1.0000 0.67370  0.75200  0.96660  Biso   1.000  H 
  C15      1.0000 0.67190  0.78800  0.12270  Biso   1.000  C 
  C16      1.0000 0.67360  0.76649  0.24980  Biso   1.000  C 
  C17      1.0000 0.67360  0.73351  0.25020  Biso   1.000  C 
  H13      1.0000 0.67470  0.72270  0.16090  Biso   1.000  H 
  C18      1.0000 0.67190  0.71200  0.37730  Biso   1.000  C 
  C19      1.0000 0.66920  0.67750  0.36540  Biso   1.000  C 
  H14      1.0000 0.66870  0.66770  0.27420  Biso   1.000  H 
  C20      1.0000 0.66730  0.65750  0.48370  Biso   1.000  C 
  H15      1.0000 0.66570  0.63410  0.47130  Biso   1.000  H 
  N4       1.0000 0.66750  0.66971  0.61550  Biso   1.000  N 
  C21      1.0000 0.66990  0.70270  0.63120  Biso   1.000  C 
  C22      1.0000 0.67210  0.72480  0.51740  Biso   1.000  C 
  H16      1.0000 0.67370  0.74800  0.53340  Biso   1.000  H 
  H17      1.0000 0.67020  0.71160  0.72420  Biso   1.000  H 
  Pb3      1.0000 0.67953  0.63031  0.84188  Biso   1.000  Pb
  N5       1.0000 0.61350  0.59133  0.69770  Biso   1.000  N 
  C23      1.0000 0.55810  0.59923  0.62850  Biso   1.000  C 
  H18      1.0000 0.54570  0.62190  0.62320  Biso   1.000  H 
  C24      1.0000 0.51860  0.57547  0.56460  Biso   1.000  C 
  H19      1.0000 0.47990  0.58210  0.51740  Biso   1.000  H 
  C25      1.0000 0.53610  0.54141  0.57030  Biso   1.000  C 
  C26      1.0000 0.49420  0.51627  0.50280  Biso   1.000  C 
  H20      1.0000 0.45530  0.52400  0.45950  Biso   1.000  H 
  C27      1.0000 0.50580  0.48373  0.49720  Biso   1.000  C 
  H21      1.0000 0.54470  0.47600  0.54050  Biso   1.000  H 
  C28      1.0000 0.46390  0.45859  0.42970  Biso   1.000  C 
  C29      1.0000 0.48140  0.42453  0.43540  Biso   1.000  C 
  C30      1.0000 0.44190  0.40077  0.37150  Biso   1.000  C 
  H22      1.0000 0.45430  0.37810  0.37680  Biso   1.000  H 
  N6       1.0000 0.38650  0.40867  0.30230  Biso   1.000  N 
  C31      1.0000 0.36960  0.44136  0.29670  Biso   1.000  C 
  C32      1.0000 0.40590  0.46640  0.35820  Biso   1.000  C 
  H23      1.0000 0.39170  0.48880  0.35220  Biso   1.000  H 
  H24      1.0000 0.33090  0.44730  0.24800  Biso   1.000  H 
  Pb4      1.0000 0.32047  0.36969  0.15812  Biso   1.000  Pb
  O3       1.0000 0.36150  0.31213  0.03410  Biso   1.000  O 
  C33      1.0000 0.41760  0.32380  0.04920  Biso   1.000  C 
  C34      1.0000 0.47960  0.30430  0.00040  Biso   1.000  C 
  H25      1.0000 0.50250  0.29560  0.08350  Biso   1.000  H 
  H26      1.0000 0.46670  0.28580  0.93910  Biso   1.000  H 
  H27      1.0000 0.50850  0.31930  0.94810  Biso   1.000  H 
  O4       1.0000 0.42880  0.35151  0.10850  Biso   1.000  O 
  N7       1.0000 0.33250  0.33029  0.38450  Biso   1.000  N 
  C35      1.0000 0.33010  0.29730  0.36880  Biso   1.000  C 
  H28      1.0000 0.32980  0.28840  0.27580  Biso   1.000  H 
  C36      1.0000 0.32790  0.27520  0.48260  Biso   1.000  C 
  H29      1.0000 0.32630  0.25200  0.46660  Biso   1.000  H 
  C37      1.0000 0.32810  0.28800  0.62270  Biso   1.000  C 
  C38      1.0000 0.33080  0.32250  0.63460  Biso   1.000  C 
  C39      1.0000 0.33270  0.34250  0.51630  Biso   1.000  C 
  H30      1.0000 0.33430  0.36590  0.52870  Biso   1.000  H 
  H31      1.0000 0.33130  0.33230  0.72580  Biso   1.000  H 
  C40      1.0000 0.32640  0.26649  0.74980  Biso   1.000  C 
  H32      1.0000 0.32530  0.27730  0.83910  Biso   1.000  H 
  C41      1.0000 0.32640  0.23351  0.75020  Biso   1.000  C 
  H33      1.0000 0.32530  0.22270  0.66090  Biso   1.000  H 
  C42      1.0000 0.32810  0.21200  0.87730  Biso   1.000  C 
  C43      1.0000 0.33080  0.17750  0.86540  Biso   1.000  C 
  H34      1.0000 0.33130  0.16770  0.77420  Biso   1.000  H 
  C44      1.0000 0.33270  0.15750  0.98370  Biso   1.000  C 
  H35      1.0000 0.33430  0.13410  0.97130  Biso   1.000  H 
  N8       1.0000 0.33250  0.16971  0.11550  Biso   1.000  N 
  C45      1.0000 0.33010  0.20270  0.13120  Biso   1.000  C 
  C46      1.0000 0.32790  0.22480  0.01740  Biso   1.000  C 
  H36      1.0000 0.32630  0.24800  0.03340  Biso   1.000  H 
  H37      1.0000 0.32980  0.21160  0.22420  Biso   1.000  H 
  O5       1.0000 0.35400  0.41625  0.98040  Biso   1.000  O 
  C47      1.0000 0.31930  0.41180  0.87590  Biso   1.000  C 
  C48      1.0000 0.32870  0.43810  0.75530  Biso   1.000  C 
  F1       1.0000 0.38970  0.44760  0.73660  Biso   1.000  F 
  F2       1.0000 0.29710  0.46689  0.78840  Biso   1.000  F 
  F3       1.0000 0.30380  0.42830  0.63120  Biso   1.000  F 
  O6       1.0000 0.27700  0.39074  0.85510  Biso   1.000  O 
  H38      1.0000 0.52010  0.41790  0.48260  Biso   1.000  H 
  C49      1.0000 0.59410  0.53360  0.64180  Biso   1.000  C 
  H39      1.0000 0.60830  0.51120  0.64780  Biso   1.000  H 
  C50      1.0000 0.63040  0.55864  0.70330  Biso   1.000  C 
  H40      1.0000 0.66910  0.55270  0.75200  Biso   1.000  H 
  O7       1.0000 0.57120  0.64849  0.89150  Biso   1.000  O 
  C51      1.0000 0.58240  0.67620  0.95080  Biso   1.000  C 
  C52      1.0000 0.52040  0.69570  0.99960  Biso   1.000  C 
  H41      1.0000 0.49750  0.70440  0.91650  Biso   1.000  H 
  H42      1.0000 0.49150  0.68070  0.05190  Biso   1.000  H 
  H43      1.0000 0.53330  0.71420  0.06090  Biso   1.000  H 
  O8       1.0000 0.63850  0.68787  0.96590  Biso   1.000  O 
  O9       1.0000 0.64600  0.58375  0.01960  Biso   1.000  O 
  C53      1.0000 0.68070  0.58820  0.12410  Biso   1.000  C 
  C54      1.0000 0.67130  0.56190  0.24470  Biso   1.000  C 
  F4       1.0000 0.70290  0.53311  0.21160  Biso   1.000  F 
  F5       1.0000 0.69620  0.57170  0.36880  Biso   1.000  F 
  F6       1.0000 0.61030  0.55240  0.26340  Biso   1.000  F 
  O10      1.0000 0.72300  0.60926  0.14490  Biso   1.000  O 
  H44      1.0000 0.67470  0.77730  0.33910  Biso   1.000  H 
  C55      1.0000 0.66920  0.82250  0.13460  Biso   1.000  C 
  C56      1.0000 0.66730  0.84250  0.01630  Biso   1.000  C 
  H45      1.0000 0.66570  0.86590  0.02870  Biso   1.000  H 
  H46      1.0000 0.66870  0.83230  0.22580  Biso   1.000  H 
  O11      1.0000 0.64600  0.91625  0.48040  Biso   1.000  O 
  C57      1.0000 0.68070  0.91180  0.37590  Biso   1.000  C 
  C58      1.0000 0.67130  0.93810  0.25530  Biso   1.000  C 
  F7       1.0000 0.70290  0.96689  0.28840  Biso   1.000  F 
  F8       1.0000 0.61030  0.94760  0.23660  Biso   1.000  F 
  F9       1.0000 0.69620  0.92830  0.13120  Biso   1.000  F 
  O12      1.0000 0.72300  0.89074  0.35510  Biso   1.000  O 
  H47      1.0000 0.54470  0.02400  0.95950  Biso   1.000  H 
  C59      1.0000 0.40590  0.03360  0.14180  Biso   1.000  C 
  H48      1.0000 0.39170  0.01120  0.14780  Biso   1.000  H 
  C60      1.0000 0.36960  0.05864  0.20330  Biso   1.000  C 
  H49      1.0000 0.33090  0.05270  0.25200  Biso   1.000  H 
  O13      1.0000 0.35400  0.08375  0.51960  Biso   1.000  O 
  C61      1.0000 0.31930  0.08820  0.62410  Biso   1.000  C 
  C62      1.0000 0.32870  0.06190  0.74470  Biso   1.000  C 
  F10      1.0000 0.29710  0.03311  0.71160  Biso   1.000  F 
  F11      1.0000 0.30380  0.07170  0.86880  Biso   1.000  F 
  F12      1.0000 0.38970  0.05240  0.76340  Biso   1.000  F 
  O14      1.0000 0.27700  0.10926  0.64490  Biso   1.000  O 
  O15      1.0000 0.42880  0.14849  0.39150  Biso   1.000  O 
  C63      1.0000 0.41760  0.17620  0.45080  Biso   1.000  C 
  C64      1.0000 0.47960  0.19570  0.49960  Biso   1.000  C 
  H50      1.0000 0.46670  0.21420  0.56090  Biso   1.000  H 
  H51      1.0000 0.50250  0.20440  0.41650  Biso   1.000  H 
  H52      1.0000 0.50850  0.18070  0.55190  Biso   1.000  H 
  O16      1.0000 0.36150  0.18787  0.46590  Biso   1.000  O 
