data_image0
_cell_length_a       21.381
_cell_length_b       7.616
_cell_length_c       15.488
_cell_angle_alpha    90
_cell_angle_beta     126.334
_cell_angle_gamma    90

_symmetry_space_group_name_H-M    "P 1"
_symmetry_int_tables_number       1

loop_
  _symmetry_equiv_pos_as_xyz
  'x, y, z'

loop_
  _atom_site_label
  _atom_site_occupancy
  _atom_site_fract_x
  _atom_site_fract_y
  _atom_site_fract_z
  _atom_site_thermal_displace_type
  _atom_site_B_iso_or_equiv
  _atom_site_type_symbol
  Cu1      1.0000 0.50000  0.24817  0.50000  Biso   1.000  Cu
  N1       1.0000 0.59130  0.09040  0.60330  Biso   1.000  N 
  C1       1.0000 0.65580  0.13750  0.69630  Biso   1.000  C 
  H1       1.0000 0.67040  0.25350  0.71760  Biso   1.000  H 
  N2       1.0000 0.69720  0.00000  0.75560  Biso   1.000  N 
  C2       1.0000 0.77220  0.00000  0.86440  Biso   1.000  C 
  H2       1.0000 0.77480  0.10300  0.90330  Biso   1.000  H 
  C3       1.0000 0.84020  0.00000  0.85970  Biso   1.000  C 
  C4       1.0000 0.87350  0.15620  0.86010  Biso   1.000  C 
  C5       1.0000 0.93880  0.15840  0.86060  Biso   1.000  C 
  H3       1.0000 0.96030  0.26470  0.86090  Biso   1.000  H 
  C6       1.0000 0.97190  0.00000  0.86080  Biso   1.000  C 
  C7       1.0000 0.04490  0.00000  0.86640  Biso   1.000  C 
  H4       1.0000 0.07560  0.10310  0.90500  Biso   1.000  H 
  N3       1.0000 0.02510  0.00000  0.75620  Biso   1.000  N 
  C8       1.0000 0.01370  0.14000  0.69590  Biso   1.000  C 
  H5       1.0000 0.01670  0.25610  0.71660  Biso   1.000  H 
  N4       1.0000 0.99770  0.09040  0.60340  Biso   1.000  N 
  Cu2      1.0000 0.00000  0.25183  0.50000  Biso   1.000  Cu
  N5       1.0000 0.00230  0.09040  0.39660  Biso   1.000  N 
  N6       1.0000 0.00230  0.90960  0.39660  Biso   1.000  N 
  Cu3      1.0000 0.00000  0.74817  0.50000  Biso   1.000  Cu
  N7       1.0000 0.09130  0.59040  0.60330  Biso   1.000  N 
  N8       1.0000 0.09130  0.40960  0.60330  Biso   1.000  N 
  C9       1.0000 0.15580  0.36250  0.69630  Biso   1.000  C 
  H6       1.0000 0.17040  0.24650  0.71760  Biso   1.000  H 
  N9       1.0000 0.19720  0.50000  0.75560  Biso   1.000  N 
  C10      1.0000 0.15580  0.63750  0.69630  Biso   1.000  C 
  H7       1.0000 0.17040  0.75350  0.71760  Biso   1.000  H 
  C11      1.0000 0.27220  0.50000  0.86440  Biso   1.000  C 
  H8       1.0000 0.27480  0.39700  0.90330  Biso   1.000  H 
  H9       1.0000 0.27480  0.60300  0.90330  Biso   1.000  H 
  C12      1.0000 0.34020  0.50000  0.85970  Biso   1.000  C 
  C13      1.0000 0.37350  0.65620  0.86010  Biso   1.000  C 
  H10      1.0000 0.35170  0.76200  0.85990  Biso   1.000  H 
  C14      1.0000 0.43880  0.65840  0.86060  Biso   1.000  C 
  H11      1.0000 0.46030  0.76470  0.86090  Biso   1.000  H 
  C15      1.0000 0.47190  0.50000  0.86080  Biso   1.000  C 
  C16      1.0000 0.43880  0.34160  0.86060  Biso   1.000  C 
  H12      1.0000 0.46030  0.23530  0.86090  Biso   1.000  H 
  C17      1.0000 0.37350  0.34380  0.86010  Biso   1.000  C 
  H13      1.0000 0.35170  0.23800  0.85990  Biso   1.000  H 
  C18      1.0000 0.54490  0.50000  0.86640  Biso   1.000  C 
  H14      1.0000 0.57560  0.39690  0.90500  Biso   1.000  H 
  H15      1.0000 0.57560  0.60310  0.90500  Biso   1.000  H 
  N10      1.0000 0.52510  0.50000  0.75620  Biso   1.000  N 
  C19      1.0000 0.51370  0.64000  0.69590  Biso   1.000  C 
  H16      1.0000 0.51670  0.75610  0.71660  Biso   1.000  H 
  N11      1.0000 0.49770  0.59040  0.60340  Biso   1.000  N 
  Cu4      1.0000 0.50000  0.75183  0.50000  Biso   1.000  Cu
  N12      1.0000 0.59130  0.90960  0.60330  Biso   1.000  N 
  C20      1.0000 0.65580  0.86250  0.69630  Biso   1.000  C 
  H17      1.0000 0.67040  0.74650  0.71760  Biso   1.000  H 
  N13      1.0000 0.40870  0.90960  0.39670  Biso   1.000  N 
  C21      1.0000 0.34420  0.86250  0.30370  Biso   1.000  C 
  H18      1.0000 0.32960  0.74650  0.28240  Biso   1.000  H 
  N14      1.0000 0.30280  0.00000  0.24440  Biso   1.000  N 
  C22      1.0000 0.22780  0.00000  0.13560  Biso   1.000  C 
  H19      1.0000 0.22520  0.10300  0.09670  Biso   1.000  H 
  C23      1.0000 0.15980  0.00000  0.14030  Biso   1.000  C 
  C24      1.0000 0.12650  0.15620  0.13990  Biso   1.000  C 
  C25      1.0000 0.06120  0.15840  0.13940  Biso   1.000  C 
  H20      1.0000 0.03970  0.26470  0.13910  Biso   1.000  H 
  C26      1.0000 0.02810  0.00000  0.13920  Biso   1.000  C 
  C27      1.0000 0.95510  0.00000  0.13360  Biso   1.000  C 
  H21      1.0000 0.92440  0.10310  0.09500  Biso   1.000  H 
  N15      1.0000 0.97490  0.00000  0.24380  Biso   1.000  N 
  C28      1.0000 0.98630  0.14000  0.30410  Biso   1.000  C 
  H22      1.0000 0.98330  0.25610  0.28340  Biso   1.000  H 
  C29      1.0000 0.98630  0.86000  0.30410  Biso   1.000  C 
  H23      1.0000 0.98330  0.74390  0.28340  Biso   1.000  H 
  H24      1.0000 0.92440  0.89690  0.09500  Biso   1.000  H 
  C30      1.0000 0.06120  0.84160  0.13940  Biso   1.000  C 
  H25      1.0000 0.03970  0.73530  0.13910  Biso   1.000  H 
  C31      1.0000 0.12650  0.84380  0.13990  Biso   1.000  C 
  H26      1.0000 0.14830  0.73800  0.14010  Biso   1.000  H 
  H27      1.0000 0.14830  0.26200  0.14010  Biso   1.000  H 
  H28      1.0000 0.22520  0.89700  0.09670  Biso   1.000  H 
  C32      1.0000 0.34420  0.13750  0.30370  Biso   1.000  C 
  H29      1.0000 0.32960  0.25350  0.28240  Biso   1.000  H 
  N16      1.0000 0.40870  0.09040  0.39670  Biso   1.000  N 
  N17      1.0000 0.50230  0.59040  0.39660  Biso   1.000  N 
  C33      1.0000 0.48630  0.64000  0.30410  Biso   1.000  C 
  H30      1.0000 0.48330  0.75610  0.28340  Biso   1.000  H 
  N18      1.0000 0.47490  0.50000  0.24380  Biso   1.000  N 
  C34      1.0000 0.45510  0.50000  0.13360  Biso   1.000  C 
  H31      1.0000 0.42440  0.39690  0.09500  Biso   1.000  H 
  H32      1.0000 0.42440  0.60310  0.09500  Biso   1.000  H 
  C35      1.0000 0.52810  0.50000  0.13920  Biso   1.000  C 
  C36      1.0000 0.56120  0.34160  0.13940  Biso   1.000  C 
  H33      1.0000 0.53970  0.23530  0.13910  Biso   1.000  H 
  C37      1.0000 0.62650  0.34380  0.13990  Biso   1.000  C 
  C38      1.0000 0.65980  0.50000  0.14030  Biso   1.000  C 
  C39      1.0000 0.72780  0.50000  0.13560  Biso   1.000  C 
  H34      1.0000 0.72520  0.39700  0.09670  Biso   1.000  H 
  H35      1.0000 0.72520  0.60300  0.09670  Biso   1.000  H 
  N19      1.0000 0.80280  0.50000  0.24440  Biso   1.000  N 
  C40      1.0000 0.84420  0.36250  0.30370  Biso   1.000  C 
  H36      1.0000 0.82960  0.24650  0.28240  Biso   1.000  H 
  N20      1.0000 0.90870  0.40960  0.39670  Biso   1.000  N 
  N21      1.0000 0.90870  0.59040  0.39670  Biso   1.000  N 
  C41      1.0000 0.84420  0.63750  0.30370  Biso   1.000  C 
  H37      1.0000 0.82960  0.75350  0.28240  Biso   1.000  H 
  C42      1.0000 0.62650  0.65620  0.13990  Biso   1.000  C 
  C43      1.0000 0.56120  0.65840  0.13940  Biso   1.000  C 
  H38      1.0000 0.53970  0.76470  0.13910  Biso   1.000  H 
  H39      1.0000 0.64830  0.76200  0.14010  Biso   1.000  H 
  H40      1.0000 0.64830  0.23800  0.14010  Biso   1.000  H 
  C44      1.0000 0.48630  0.36000  0.30410  Biso   1.000  C 
  H41      1.0000 0.48330  0.24390  0.28340  Biso   1.000  H 
  N22      1.0000 0.50230  0.40960  0.39660  Biso   1.000  N 
  N23      1.0000 0.49770  0.40960  0.60340  Biso   1.000  N 
  C45      1.0000 0.51370  0.36000  0.69590  Biso   1.000  C 
  H42      1.0000 0.51670  0.24390  0.71660  Biso   1.000  H 
  N24      1.0000 0.99770  0.90960  0.60340  Biso   1.000  N 
  C46      1.0000 0.01370  0.86000  0.69590  Biso   1.000  C 
  H43      1.0000 0.01670  0.74390  0.71660  Biso   1.000  H 
  H44      1.0000 0.07560  0.89690  0.90500  Biso   1.000  H 
  C47      1.0000 0.93880  0.84160  0.86060  Biso   1.000  C 
  H45      1.0000 0.96030  0.73530  0.86090  Biso   1.000  H 
  C48      1.0000 0.87350  0.84380  0.86010  Biso   1.000  C 
  H46      1.0000 0.85170  0.73800  0.85990  Biso   1.000  H 
  H47      1.0000 0.85170  0.26200  0.85990  Biso   1.000  H 
  H48      1.0000 0.77480  0.89700  0.90330  Biso   1.000  H 
