data_image0
_cell_length_a       7.7613
_cell_length_b       7.7613
_cell_length_c       35.852
_cell_angle_alpha    90
_cell_angle_beta     90
_cell_angle_gamma    90

_symmetry_space_group_name_H-M    "P 1"
_symmetry_int_tables_number       1

loop_
  _symmetry_equiv_pos_as_xyz
  'x, y, z'

loop_
  _atom_site_label
  _atom_site_occupancy
  _atom_site_fract_x
  _atom_site_fract_y
  _atom_site_fract_z
  _atom_site_thermal_displace_type
  _atom_site_B_iso_or_equiv
  _atom_site_type_symbol
  Cd1      1.0000 0.01441  0.01441  0.50000  Biso   1.000  Cd
  N1       1.0000 0.30860  0.02870  0.49610  Biso   1.000  N 
  N2       1.0000 0.39810  0.12810  0.46890  Biso   1.000  N 
  C1       1.0000 0.56300  0.11800  0.47940  Biso   1.000  C 
  H1       1.0000 0.65400  0.16190  0.46550  Biso   1.000  H 
  N3       1.0000 0.58050  0.03820  0.51250  Biso   1.000  N 
  N4       1.0000 0.73410  0.01810  0.53110  Biso   1.000  N 
  C2       1.0000 0.71540  0.02920  0.56750  Biso   1.000  C 
  H2       1.0000 0.60850  0.06610  0.57600  Biso   1.000  H 
  C3       1.0000 0.84100  0.99110  0.59520  Biso   1.000  C 
  C4       1.0000 0.79030  0.01500  0.63230  Biso   1.000  C 
  H3       1.0000 0.68080  0.05920  0.63690  Biso   1.000  H 
  C5       1.0000 0.88900  0.98000  0.66070  Biso   1.000  C 
  Cl1      1.0000 0.83010  0.02540  0.70675  Biso   1.000  Cl
  C6       1.0000 0.05400  0.90990  0.65510  Biso   1.000  C 
  H4       1.0000 0.12280  0.87880  0.67530  Biso   1.000  H 
  C7       1.0000 0.11060  0.88920  0.61940  Biso   1.000  C 
  Cl2      1.0000 0.31200  0.80580  0.61187  Biso   1.000  Cl
  C8       1.0000 0.01020  0.92200  0.58720  Biso   1.000  C 
  O1       1.0000 0.06680  0.90180  0.55490  Biso   1.000  O 
  C9       1.0000 0.41960  0.98200  0.52230  Biso   1.000  C 
  H5       1.0000 0.39250  0.92080  0.54380  Biso   1.000  H 
  N5       1.0000 0.02870  0.30860  0.50390  Biso   1.000  N 
  N6       1.0000 0.12810  0.39810  0.53110  Biso   1.000  N 
  C10      1.0000 0.11800  0.56300  0.52060  Biso   1.000  C 
  H6       1.0000 0.16190  0.65400  0.53450  Biso   1.000  H 
  N7       1.0000 0.03820  0.58050  0.48750  Biso   1.000  N 
  N8       1.0000 0.01810  0.73410  0.46890  Biso   1.000  N 
  C11      1.0000 0.02920  0.71540  0.43250  Biso   1.000  C 
  H7       1.0000 0.06610  0.60850  0.42400  Biso   1.000  H 
  C12      1.0000 0.99110  0.84100  0.40480  Biso   1.000  C 
  C13      1.0000 0.92200  0.01020  0.41280  Biso   1.000  C 
  C14      1.0000 0.88920  0.11060  0.38060  Biso   1.000  C 
  Cl3      1.0000 0.80580  0.31200  0.38813  Biso   1.000  Cl
  C15      1.0000 0.90990  0.05400  0.34490  Biso   1.000  C 
  H8       1.0000 0.87880  0.12280  0.32470  Biso   1.000  H 
  C16      1.0000 0.98000  0.88900  0.33930  Biso   1.000  C 
  C17      1.0000 0.01500  0.79030  0.36770  Biso   1.000  C 
  H9       1.0000 0.05920  0.68080  0.36310  Biso   1.000  H 
  Cl4      1.0000 0.02540  0.83010  0.29325  Biso   1.000  Cl
  O2       1.0000 0.90180  0.06680  0.44510  Biso   1.000  O 
  C18      1.0000 0.98200  0.41960  0.47770  Biso   1.000  C 
  H10      1.0000 0.92080  0.39250  0.45620  Biso   1.000  H 
