data_image0
_cell_length_a       18.107
_cell_length_b       9.705
_cell_length_c       18.997
_cell_angle_alpha    90
_cell_angle_beta     97.294
_cell_angle_gamma    90

_symmetry_space_group_name_H-M    "P 1"
_symmetry_int_tables_number       1

loop_
  _symmetry_equiv_pos_as_xyz
  'x, y, z'

loop_
  _atom_site_label
  _atom_site_occupancy
  _atom_site_fract_x
  _atom_site_fract_y
  _atom_site_fract_z
  _atom_site_thermal_displace_type
  _atom_site_B_iso_or_equiv
  _atom_site_type_symbol
  C1       1.0000 0.05820  0.72240  0.37840  Biso   1.000  C 
  O1       1.0000 0.03480  0.60870  0.35110  Biso   1.000  O 
  Cu1      1.0000 0.00000  0.59214  0.25000  Biso   1.000  Cu
  N1       1.0000 0.00000  0.36880  0.25000  Biso   1.000  N 
  C2       1.0000 0.03230  0.29740  0.20320  Biso   1.000  C 
  H1       1.0000 0.05560  0.34410  0.16940  Biso   1.000  H 
  C3       1.0000 0.03230  0.15520  0.20320  Biso   1.000  C 
  H2       1.0000 0.05560  0.10840  0.16940  Biso   1.000  H 
  N2       1.0000 0.00000  0.08400  0.25000  Biso   1.000  N 
  Cu2      1.0000 0.00000  0.85928  0.25000  Biso   1.000  Cu
  O2       1.0000 0.94850  0.83650  0.15260  Biso   1.000  O 
  C4       1.0000 0.94180  0.72240  0.12160  Biso   1.000  C 
  C5       1.0000 0.90180  0.71710  0.04770  Biso   1.000  C 
  C6       1.0000 0.89740  0.59620  0.01090  Biso   1.000  C 
  H3       1.0000 0.92120  0.51780  0.03070  Biso   1.000  H 
  C7       1.0000 0.85690  0.59060  0.94350  Biso   1.000  C 
  H4       1.0000 0.85460  0.50810  0.91840  Biso   1.000  H 
  C8       1.0000 0.82150  0.70050  0.91420  Biso   1.000  C 
  H5       1.0000 0.79450  0.69370  0.86930  Biso   1.000  H 
  C9       1.0000 0.82460  0.82180  0.94920  Biso   1.000  C 
  H6       1.0000 0.80020  0.89870  0.92850  Biso   1.000  H 
  C10      1.0000 0.86540  0.83110  0.01760  Biso   1.000  C 
  H7       1.0000 0.86750  0.91410  0.04220  Biso   1.000  H 
  O3       1.0000 0.96520  0.60870  0.14890  Biso   1.000  O 
  O4       1.0000 0.90430  0.84290  0.28590  Biso   1.000  O 
  C11      1.0000 0.87320  0.72620  0.28890  Biso   1.000  C 
  O5       1.0000 0.89690  0.61500  0.27150  Biso   1.000  O 
  C12      1.0000 0.79620  0.72990  0.30920  Biso   1.000  C 
  C13      1.0000 0.75630  0.60740  0.30790  Biso   1.000  C 
  H8       1.0000 0.77560  0.52760  0.29020  Biso   1.000  H 
  C14      1.0000 0.68750  0.60410  0.33310  Biso   1.000  C 
  H9       1.0000 0.66080  0.52220  0.33230  Biso   1.000  H 
  C15      1.0000 0.65870  0.72340  0.35960  Biso   1.000  C 
  H10      1.0000 0.61270  0.72120  0.37640  Biso   1.000  H 
  C16      1.0000 0.69860  0.84590  0.36080  Biso   1.000  C 
  H11      1.0000 0.67930  0.92570  0.37850  Biso   1.000  H 
  C17      1.0000 0.76740  0.84910  0.33560  Biso   1.000  C 
  H12      1.0000 0.79410  0.93110  0.33650  Biso   1.000  H 
  O6       1.0000 0.05150  0.83650  0.34740  Biso   1.000  O 
  O7       1.0000 0.09570  0.84290  0.21410  Biso   1.000  O 
  C18      1.0000 0.12680  0.72620  0.21110  Biso   1.000  C 
  O8       1.0000 0.10310  0.61500  0.22850  Biso   1.000  O 
  C19      1.0000 0.20380  0.72990  0.19080  Biso   1.000  C 
  C20      1.0000 0.23260  0.84910  0.16440  Biso   1.000  C 
  H13      1.0000 0.20590  0.93110  0.16350  Biso   1.000  H 
  C21      1.0000 0.30140  0.84590  0.13920  Biso   1.000  C 
  C22      1.0000 0.34130  0.72340  0.14040  Biso   1.000  C 
  H14      1.0000 0.38730  0.72120  0.12360  Biso   1.000  H 
  C23      1.0000 0.31250  0.60410  0.16690  Biso   1.000  C 
  C24      1.0000 0.24370  0.60740  0.19210  Biso   1.000  C 
  H15      1.0000 0.22440  0.52760  0.20980  Biso   1.000  H 
  H16      1.0000 0.33920  0.52220  0.16770  Biso   1.000  H 
  H17      1.0000 0.32070  0.92570  0.12150  Biso   1.000  H 
  C25      1.0000 0.96770  0.15520  0.29680  Biso   1.000  C 
  C26      1.0000 0.96770  0.29740  0.29680  Biso   1.000  C 
  H18      1.0000 0.94440  0.34410  0.33060  Biso   1.000  H 
  H19      1.0000 0.94440  0.10840  0.33060  Biso   1.000  H 
  C27      1.0000 0.09820  0.71710  0.45230  Biso   1.000  C 
  C28      1.0000 0.10260  0.59620  0.48910  Biso   1.000  C 
  H20      1.0000 0.07880  0.51780  0.46930  Biso   1.000  H 
  C29      1.0000 0.14310  0.59060  0.55650  Biso   1.000  C 
  H21      1.0000 0.14540  0.50810  0.58160  Biso   1.000  H 
  C30      1.0000 0.17850  0.70050  0.58580  Biso   1.000  C 
  C31      1.0000 0.17540  0.82180  0.55080  Biso   1.000  C 
  C32      1.0000 0.13460  0.83110  0.48240  Biso   1.000  C 
  H22      1.0000 0.13250  0.91410  0.45780  Biso   1.000  H 
  H23      1.0000 0.19980  0.89870  0.57150  Biso   1.000  H 
  H24      1.0000 0.20550  0.69370  0.63070  Biso   1.000  H 
