data_image0
_cell_length_a       14.629
_cell_length_b       19.348
_cell_length_c       20.663
_cell_angle_alpha    90
_cell_angle_beta     90
_cell_angle_gamma    90

_symmetry_space_group_name_H-M    "P 1"
_symmetry_int_tables_number       1

loop_
  _symmetry_equiv_pos_as_xyz
  'x, y, z'

loop_
  _atom_site_label
  _atom_site_occupancy
  _atom_site_fract_x
  _atom_site_fract_y
  _atom_site_fract_z
  _atom_site_thermal_displace_type
  _atom_site_B_iso_or_equiv
  _atom_site_type_symbol
  O1       1.0000 0.46860  0.99904  0.14626  Biso   1.000  O 
  H1       1.0000 0.42940  0.97064  0.11742  Biso   1.000  H 
  H2       1.0000 0.47906  0.04498  0.12616  Biso   1.000  H 
  Cd1      1.0000 0.39538  0.01348  0.24709  Biso   1.000  Cd
  N1       1.0000 0.37050  0.12630  0.23045  Biso   1.000  N 
  C1       1.0000 0.32750  0.17060  0.27140  Biso   1.000  C 
  C2       1.0000 0.32280  0.23390  0.24550  Biso   1.000  C 
  N2       1.0000 0.36350  0.22937  0.18608  Biso   1.000  N 
  C3       1.0000 0.39220  0.16280  0.17990  Biso   1.000  C 
  H3       1.0000 0.42330  0.14560  0.14410  Biso   1.000  H 
  C4       1.0000 0.37390  0.28190  0.13866  Biso   1.000  C 
  C5       1.0000 0.36330  0.26610  0.07461  Biso   1.000  C 
  H4       1.0000 0.34530  0.22190  0.06210  Biso   1.000  H 
  C6       1.0000 0.38000  0.31700  0.02840  Biso   1.000  C 
  C7       1.0000 0.40740  0.38300  0.04900  Biso   1.000  C 
  C8       1.0000 0.41360  0.39970  0.11430  Biso   1.000  C 
  H5       1.0000 0.42790  0.44440  0.12740  Biso   1.000  H 
  C9       1.0000 0.39800  0.34870  0.15870  Biso   1.000  C 
  H6       1.0000 0.40350  0.35840  0.20260  Biso   1.000  H 
  N3       1.0000 0.42200  0.42390  0.99547  Biso   1.000  N 
  C10      1.0000 0.40610  0.38490  0.94100  Biso   1.000  C 
  C11      1.0000 0.41310  0.40370  0.87690  Biso   1.000  C 
  C12      1.0000 0.39650  0.35360  0.83120  Biso   1.000  C 
  H7       1.0000 0.40230  0.36450  0.78760  Biso   1.000  H 
  C13      1.0000 0.37110  0.28690  0.84880  Biso   1.000  C 
  N4       1.0000 0.35600  0.23583  0.79992  Biso   1.000  N 
  C14      1.0000 0.31190  0.24410  0.74180  Biso   1.000  C 
  C15      1.0000 0.31120  0.18290  0.71390  Biso   1.000  C 
  H8       1.0000 0.28510  0.17340  0.67390  Biso   1.000  H 
  N5       1.0000 0.35420  0.13520  0.75234  Biso   1.000  N 
  C16      1.0000 0.38130  0.16950  0.80320  Biso   1.000  C 
  H9       1.0000 0.41400  0.15030  0.83730  Biso   1.000  H 
  Cd2      1.0000 0.36698  0.02150  0.73595  Biso   1.000  Cd
  O2       1.0000 0.24310  0.00354  0.66158  Biso   1.000  O 
  C17      1.0000 0.28900  0.01450  0.61210  Biso   1.000  C 
  O3       1.0000 0.36760  0.03900  0.61405  Biso   1.000  O 
  C18      1.0000 0.25050  0.99370  0.54700  Biso   1.000  C 
  C19      1.0000 0.17390  0.95330  0.54440  Biso   1.000  C 
  H10      1.0000 0.14630  0.93930  0.58280  Biso   1.000  H 
  C20      1.0000 0.13690  0.93290  0.48630  Biso   1.000  C 
  H11      1.0000 0.08590  0.90420  0.48540  Biso   1.000  H 
  C21      1.0000 0.17570  0.95510  0.42960  Biso   1.000  C 
  H12      1.0000 0.14860  0.94370  0.39030  Biso   1.000  H 
  C22      1.0000 0.25410  0.99380  0.43024  Biso   1.000  C 
  C23      1.0000 0.29220  0.01330  0.48908  Biso   1.000  C 
  H13      1.0000 0.34560  0.03940  0.48990  Biso   1.000  H 
  C24      1.0000 0.30020  0.01160  0.36715  Biso   1.000  C 
  O4       1.0000 0.37920  0.03425  0.36753  Biso   1.000  O 
  O5       1.0000 0.25880  0.99954  0.31507  Biso   1.000  O 
  Cd3      1.0000 0.13302  0.97850  0.23595  Biso   1.000  Cd
  O6       1.0000 0.13240  0.96100  0.11405  Biso   1.000  O 
  C25      1.0000 0.21100  0.98550  0.11210  Biso   1.000  C 
  O7       1.0000 0.25690  0.99646  0.16158  Biso   1.000  O 
  C26      1.0000 0.24950  0.00630  0.04700  Biso   1.000  C 
  C27      1.0000 0.32610  0.04670  0.04440  Biso   1.000  C 
  H14      1.0000 0.35370  0.06070  0.08280  Biso   1.000  H 
  C28      1.0000 0.36310  0.06710  0.98630  Biso   1.000  C 
  H15      1.0000 0.41410  0.09580  0.98540  Biso   1.000  H 
  C29      1.0000 0.32430  0.04490  0.92960  Biso   1.000  C 
  H16      1.0000 0.35140  0.05630  0.89030  Biso   1.000  H 
  C30      1.0000 0.24590  0.00620  0.93024  Biso   1.000  C 
  C31      1.0000 0.20780  0.98670  0.98908  Biso   1.000  C 
  H17      1.0000 0.15440  0.96060  0.98990  Biso   1.000  H 
  C32      1.0000 0.19980  0.98840  0.86715  Biso   1.000  C 
  O8       1.0000 0.12080  0.96575  0.86753  Biso   1.000  O 
  Cd4      1.0000 0.10462  0.98651  0.74709  Biso   1.000  Cd
  N6       1.0000 0.12950  0.87370  0.73045  Biso   1.000  N 
  C33      1.0000 0.17250  0.82940  0.77140  Biso   1.000  C 
  C34      1.0000 0.10780  0.83720  0.67990  Biso   1.000  C 
  H18      1.0000 0.07670  0.85440  0.64410  Biso   1.000  H 
  N7       1.0000 0.13650  0.77063  0.68608  Biso   1.000  N 
  C35      1.0000 0.17720  0.76610  0.74550  Biso   1.000  C 
  H19      1.0000 0.20290  0.72690  0.76410  Biso   1.000  H 
  C36      1.0000 0.12610  0.71810  0.63866  Biso   1.000  C 
  C37      1.0000 0.13670  0.73390  0.57461  Biso   1.000  C 
  H20      1.0000 0.15470  0.77810  0.56210  Biso   1.000  H 
  C38      1.0000 0.12000  0.68300  0.52840  Biso   1.000  C 
  C39      1.0000 0.11970  0.68218  0.45966  Biso   1.000  C 
  C40      1.0000 0.09390  0.61510  0.44100  Biso   1.000  C 
  C41      1.0000 0.08690  0.59630  0.37690  Biso   1.000  C 
  H21      1.0000 0.07160  0.55140  0.36490  Biso   1.000  H 
  C42      1.0000 0.10350  0.64640  0.33120  Biso   1.000  C 
  H22      1.0000 0.09770  0.63550  0.28760  Biso   1.000  H 
  C43      1.0000 0.12890  0.71310  0.34880  Biso   1.000  C 
  C44      1.0000 0.13850  0.73140  0.41276  Biso   1.000  C 
  H23      1.0000 0.15720  0.77560  0.42420  Biso   1.000  H 
  N8       1.0000 0.14400  0.76417  0.29992  Biso   1.000  N 
  C45      1.0000 0.18810  0.75590  0.24180  Biso   1.000  C 
  H24      1.0000 0.21250  0.71510  0.22530  Biso   1.000  H 
  C46      1.0000 0.18880  0.81710  0.21390  Biso   1.000  C 
  N9       1.0000 0.14580  0.86480  0.25234  Biso   1.000  N 
  C47      1.0000 0.11870  0.83050  0.30320  Biso   1.000  C 
  H25      1.0000 0.08600  0.84970  0.33730  Biso   1.000  H 
  H26      1.0000 0.21490  0.82660  0.17390  Biso   1.000  H 
  N10      1.0000 0.07800  0.57610  0.49547  Biso   1.000  N 
  C48      1.0000 0.09260  0.61700  0.54900  Biso   1.000  C 
  C49      1.0000 0.08640  0.60030  0.61430  Biso   1.000  C 
  H27      1.0000 0.07210  0.55560  0.62740  Biso   1.000  H 
  C50      1.0000 0.10200  0.65130  0.65870  Biso   1.000  C 
  H28      1.0000 0.09650  0.64160  0.70260  Biso   1.000  H 
  C51      1.0000 0.04090  0.50570  0.49520  Biso   1.000  C 
  C52      1.0000 0.11220  0.45120  0.49220  Biso   1.000  C 
  H29      1.0000 0.08360  0.40650  0.49240  Biso   1.000  H 
  H30      1.0000 0.14720  0.45650  0.45320  Biso   1.000  H 
  H31      1.0000 0.15190  0.45520  0.52900  Biso   1.000  H 
  H32      1.0000 0.00050  0.50070  0.45830  Biso   1.000  H 
  H33      1.0000 0.00470  0.49910  0.53400  Biso   1.000  H 
  H34      1.0000 0.19540  0.84140  0.81180  Biso   1.000  H 
  O9       1.0000 0.03140  0.00096  0.64626  Biso   1.000  O 
  H35      1.0000 0.07060  0.02936  0.61742  Biso   1.000  H 
  H36      1.0000 0.02094  0.95502  0.62616  Biso   1.000  H 
  O10      1.0000 0.24120  0.00046  0.81507  Biso   1.000  O 
  N11      1.0000 0.10080  0.10341  0.75561  Biso   1.000  N 
  C53      1.0000 0.12450  0.13810  0.80680  Biso   1.000  C 
  C54      1.0000 0.06100  0.15120  0.71570  Biso   1.000  C 
  C55      1.0000 0.06190  0.21380  0.74240  Biso   1.000  C 
  H37      1.0000 0.04020  0.25470  0.72440  Biso   1.000  H 
  N12      1.0000 0.10170  0.20513  0.80249  Biso   1.000  N 
  C56      1.0000 0.11490  0.25580  0.85100  Biso   1.000  C 
  C57      1.0000 0.10600  0.23670  0.91460  Biso   1.000  C 
  H38      1.0000 0.09040  0.19170  0.92580  Biso   1.000  H 
  C58      1.0000 0.12100  0.28711  0.96230  Biso   1.000  C 
  C59      1.0000 0.14330  0.35460  0.94360  Biso   1.000  C 
  C60      1.0000 0.14830  0.37320  0.87980  Biso   1.000  C 
  C61      1.0000 0.13500  0.32310  0.83320  Biso   1.000  C 
  H39      1.0000 0.13950  0.33460  0.78960  Biso   1.000  H 
  H40      1.0000 0.16040  0.41870  0.86820  Biso   1.000  H 
  N13      1.0000 0.15600  0.39316  0.99822  Biso   1.000  N 
  C62      1.0000 0.14320  0.35300  0.05120  Biso   1.000  C 
  C63      1.0000 0.15070  0.36910  0.11670  Biso   1.000  C 
  H41      1.0000 0.16340  0.41400  0.12980  Biso   1.000  H 
  C64      1.0000 0.13900  0.31820  0.16080  Biso   1.000  C 
  H42      1.0000 0.14440  0.32840  0.20460  Biso   1.000  H 
  C65      1.0000 0.11900  0.25100  0.14200  Biso   1.000  C 
  N14      1.0000 0.11120  0.19803  0.18877  Biso   1.000  N 
  C66      1.0000 0.07900  0.20340  0.25150  Biso   1.000  C 
  C67      1.0000 0.08450  0.13950  0.27620  Biso   1.000  C 
  N15      1.0000 0.11920  0.09448  0.23159  Biso   1.000  N 
  C68      1.0000 0.13480  0.13140  0.17990  Biso   1.000  C 
  H43      1.0000 0.15910  0.11390  0.14170  Biso   1.000  H 
  H44      1.0000 0.06710  0.12750  0.31800  Biso   1.000  H 
  H45      1.0000 0.05790  0.24300  0.27220  Biso   1.000  H 
  C69      1.0000 0.10850  0.23420  0.07730  Biso   1.000  C 
  H46      1.0000 0.09300  0.18950  0.06480  Biso   1.000  H 
  C70      1.0000 0.12170  0.28540  0.03170  Biso   1.000  C 
  C71      1.0000 0.17820  0.46570  0.99930  Biso   1.000  C 
  H47      1.0000 0.21580  0.47640  0.96190  Biso   1.000  H 
  C72      1.0000 0.09730  0.51120  0.99890  Biso   1.000  C 
  H48      1.0000 0.05880  0.49940  0.96300  Biso   1.000  H 
  H49      1.0000 0.11660  0.55840  0.99500  Biso   1.000  H 
  H50      1.0000 0.06400  0.50540  0.03860  Biso   1.000  H 
  H51      1.0000 0.21420  0.47540  0.03770  Biso   1.000  H 
  H52      1.0000 0.03650  0.14120  0.67520  Biso   1.000  H 
  H53      1.0000 0.15400  0.11880  0.84230  Biso   1.000  H 
  O11      1.0000 0.95380  0.96940  0.77391  Biso   1.000  O 
  C73      1.0000 0.88120  0.98990  0.75090  Biso   1.000  C 
  O12      1.0000 0.87280  0.02660  0.70138  Biso   1.000  O 
  C74      1.0000 0.79450  0.96810  0.78430  Biso   1.000  C 
  C75      1.0000 0.71170  0.99360  0.76560  Biso   1.000  C 
  H54      1.0000 0.70870  0.02320  0.73020  Biso   1.000  H 
  C76      1.0000 0.62960  0.97600  0.79909  Biso   1.000  C 
  C77      1.0000 0.63810  0.92800  0.84940  Biso   1.000  C 
  H55      1.0000 0.58580  0.91480  0.87180  Biso   1.000  H 
  C78      1.0000 0.71860  0.90020  0.86670  Biso   1.000  C 
  H56      1.0000 0.72100  0.86780  0.89990  Biso   1.000  H 
  C79      1.0000 0.79800  0.91970  0.83500  Biso   1.000  C 
  H57      1.0000 0.85380  0.90070  0.84740  Biso   1.000  H 
  C80      1.0000 0.54140  0.00550  0.78070  Biso   1.000  C 
  O13      1.0000 0.53110  0.02887  0.72388  Biso   1.000  O 
  O14      1.0000 0.47760  0.00510  0.82212  Biso   1.000  O 
  O15      1.0000 0.02240  0.99490  0.32212  Biso   1.000  O 
  C81      1.0000 0.95860  0.99450  0.28070  Biso   1.000  C 
  O16      1.0000 0.96890  0.97113  0.22388  Biso   1.000  O 
  C82      1.0000 0.87040  0.02400  0.29909  Biso   1.000  C 
  C83      1.0000 0.78830  0.00640  0.26560  Biso   1.000  C 
  C84      1.0000 0.70550  0.03190  0.28430  Biso   1.000  C 
  C85      1.0000 0.61880  0.01010  0.25090  Biso   1.000  C 
  O17      1.0000 0.54620  0.03060  0.27391  Biso   1.000  O 
  O18      1.0000 0.62720  0.97340  0.20138  Biso   1.000  O 
  C86      1.0000 0.70200  0.08030  0.33500  Biso   1.000  C 
  H58      1.0000 0.64620  0.09930  0.34740  Biso   1.000  H 
  C87      1.0000 0.78140  0.09980  0.36670  Biso   1.000  C 
  H59      1.0000 0.77900  0.13220  0.39990  Biso   1.000  H 
  C88      1.0000 0.86190  0.07200  0.34940  Biso   1.000  C 
  H60      1.0000 0.91420  0.08520  0.37180  Biso   1.000  H 
  H61      1.0000 0.79130  0.97680  0.23020  Biso   1.000  H 
  N16      1.0000 0.38080  0.90552  0.73159  Biso   1.000  N 
  C89      1.0000 0.41550  0.86050  0.77620  Biso   1.000  C 
  H62      1.0000 0.43290  0.87250  0.81800  Biso   1.000  H 
  C90      1.0000 0.42100  0.79660  0.75150  Biso   1.000  C 
  N17      1.0000 0.38880  0.80197  0.68877  Biso   1.000  N 
  C91      1.0000 0.38100  0.74900  0.64200  Biso   1.000  C 
  C92      1.0000 0.39150  0.76580  0.57730  Biso   1.000  C 
  H63      1.0000 0.40700  0.81050  0.56480  Biso   1.000  H 
  C93      1.0000 0.37830  0.71460  0.53170  Biso   1.000  C 
  C94      1.0000 0.35680  0.64700  0.55120  Biso   1.000  C 
  N18      1.0000 0.34400  0.60684  0.49822  Biso   1.000  N 
  C95      1.0000 0.35670  0.64540  0.44360  Biso   1.000  C 
  C96      1.0000 0.35170  0.62680  0.37980  Biso   1.000  C 
  H64      1.0000 0.33960  0.58130  0.36820  Biso   1.000  H 
  C97      1.0000 0.36500  0.67690  0.33320  Biso   1.000  C 
  H65      1.0000 0.36050  0.66540  0.28960  Biso   1.000  H 
  C98      1.0000 0.38510  0.74420  0.35100  Biso   1.000  C 
  N19      1.0000 0.39830  0.79487  0.30249  Biso   1.000  N 
  C99      1.0000 0.37550  0.86190  0.30680  Biso   1.000  C 
  C100     1.0000 0.43900  0.84880  0.21570  Biso   1.000  C 
  N20      1.0000 0.39920  0.89659  0.25561  Biso   1.000  N 
  C101     1.0000 0.43810  0.78620  0.24240  Biso   1.000  C 
  H66      1.0000 0.45980  0.74530  0.22440  Biso   1.000  H 
  H67      1.0000 0.46350  0.85880  0.17520  Biso   1.000  H 
  H68      1.0000 0.34600  0.88120  0.34230  Biso   1.000  H 
  C102     1.0000 0.39400  0.76330  0.41460  Biso   1.000  C 
  C103     1.0000 0.37900  0.71289  0.46230  Biso   1.000  C 
  H69      1.0000 0.40960  0.80830  0.42580  Biso   1.000  H 
  C104     1.0000 0.32180  0.53430  0.49930  Biso   1.000  C 
  C105     1.0000 0.40270  0.48880  0.49890  Biso   1.000  C 
  H70      1.0000 0.38340  0.44160  0.49500  Biso   1.000  H 
  H71      1.0000 0.44120  0.50060  0.46300  Biso   1.000  H 
  H72      1.0000 0.43600  0.49460  0.53860  Biso   1.000  H 
  H73      1.0000 0.28420  0.52360  0.46190  Biso   1.000  H 
  H74      1.0000 0.28580  0.52460  0.53770  Biso   1.000  H 
  C106     1.0000 0.34930  0.63090  0.61670  Biso   1.000  C 
  H75      1.0000 0.33660  0.58600  0.62980  Biso   1.000  H 
  C107     1.0000 0.36100  0.68180  0.66080  Biso   1.000  C 
  H76      1.0000 0.35560  0.67160  0.70460  Biso   1.000  H 
  C108     1.0000 0.36520  0.86860  0.67990  Biso   1.000  C 
  H77      1.0000 0.34090  0.88610  0.64170  Biso   1.000  H 
  H78      1.0000 0.44210  0.75700  0.77220  Biso   1.000  H 
  H79      1.0000 0.28750  0.28490  0.72530  Biso   1.000  H 
  C109     1.0000 0.36150  0.26860  0.91276  Biso   1.000  C 
  H80      1.0000 0.34280  0.22440  0.92420  Biso   1.000  H 
  C110     1.0000 0.38030  0.31782  0.95966  Biso   1.000  C 
  H81      1.0000 0.42840  0.44860  0.86490  Biso   1.000  H 
  C111     1.0000 0.45910  0.49430  0.99520  Biso   1.000  C 
  H82      1.0000 0.49950  0.49930  0.95830  Biso   1.000  H 
  C112     1.0000 0.38780  0.54880  0.99220  Biso   1.000  C 
  H83      1.0000 0.35280  0.54350  0.95320  Biso   1.000  H 
  H84      1.0000 0.41640  0.59350  0.99240  Biso   1.000  H 
  H85      1.0000 0.34810  0.54480  0.02900  Biso   1.000  H 
  H86      1.0000 0.49530  0.50090  0.03400  Biso   1.000  H 
  H87      1.0000 0.29710  0.27310  0.26410  Biso   1.000  H 
  H88      1.0000 0.30460  0.15860  0.31180  Biso   1.000  H 
