data_image0
_cell_length_a       19.1289
_cell_length_b       21.8101
_cell_length_c       7.647
_cell_angle_alpha    90
_cell_angle_beta     97.172
_cell_angle_gamma    90

_symmetry_space_group_name_H-M    "P 1"
_symmetry_int_tables_number       1

loop_
  _symmetry_equiv_pos_as_xyz
  'x, y, z'

loop_
  _atom_site_label
  _atom_site_occupancy
  _atom_site_fract_x
  _atom_site_fract_y
  _atom_site_fract_z
  _atom_site_thermal_displace_type
  _atom_site_B_iso_or_equiv
  _atom_site_type_symbol
  Pb1      1.0000 0.00000  0.45442  0.25000  Biso   1.000  Pb
  O1       1.0000 0.07512  0.36720  0.31630  Biso   1.000  O 
  C1       1.0000 0.13770  0.38540  0.31040  Biso   1.000  C 
  C2       1.0000 0.19310  0.33730  0.29750  Biso   1.000  C 
  C3       1.0000 0.17400  0.27590  0.29360  Biso   1.000  C 
  H1       1.0000 0.12745  0.26428  0.31059  Biso   1.000  H 
  C4       1.0000 0.22300  0.23170  0.26490  Biso   1.000  C 
  H2       1.0000 0.20941  0.18975  0.26155  Biso   1.000  H 
  C5       1.0000 0.29150  0.24680  0.24100  Biso   1.000  C 
  C6       1.0000 0.34200  0.19869  0.19970  Biso   1.000  C 
  C7       1.0000 0.32990  0.13690  0.23010  Biso   1.000  C 
  C8       1.0000 0.37370  0.09280  0.17980  Biso   1.000  C 
  H3       1.0000 0.36395  0.05084  0.20024  Biso   1.000  H 
  N1       1.0000 0.43054  0.10776  0.10160  Biso   1.000  N 
  C9       1.0000 0.44610  0.16731  0.07620  Biso   1.000  C 
  C10      1.0000 0.40200  0.21290  0.12350  Biso   1.000  C 
  H4       1.0000 0.41300  0.25455  0.10348  Biso   1.000  H 
  H5       1.0000 0.48740  0.17782  0.02568  Biso   1.000  H 
  O2       1.0000 0.47195  0.06359  0.05310  Biso   1.000  O 
  Pb2      1.0000 0.50000  0.04558  0.75000  Biso   1.000  Pb
  O3       1.0000 0.42488  0.13280  0.68370  Biso   1.000  O 
  C11      1.0000 0.36230  0.11460  0.68960  Biso   1.000  C 
  C12      1.0000 0.30690  0.16270  0.70250  Biso   1.000  C 
  C13      1.0000 0.23800  0.14660  0.71980  Biso   1.000  C 
  H6       1.0000 0.22414  0.10476  0.71378  Biso   1.000  H 
  C14      1.0000 0.18990  0.19160  0.74590  Biso   1.000  C 
  H7       1.0000 0.14254  0.18022  0.75518  Biso   1.000  H 
  C15      1.0000 0.20850  0.25320  0.75900  Biso   1.000  C 
  C16      1.0000 0.15800  0.30131  0.80030  Biso   1.000  C 
  C17      1.0000 0.09800  0.28710  0.87650  Biso   1.000  C 
  H8       1.0000 0.08700  0.24545  0.89652  Biso   1.000  H 
  C18      1.0000 0.05390  0.33269  0.92380  Biso   1.000  C 
  H9       1.0000 0.01260  0.32218  0.97432  Biso   1.000  H 
  N2       1.0000 0.06946  0.39224  0.89840  Biso   1.000  N 
  C19      1.0000 0.12630  0.40720  0.82020  Biso   1.000  C 
  H10      1.0000 0.13605  0.44916  0.79976  Biso   1.000  H 
  C20      1.0000 0.17010  0.36310  0.76990  Biso   1.000  C 
  H11      1.0000 0.20948  0.37471  0.71323  Biso   1.000  H 
  O4       1.0000 0.02805  0.43641  0.94690  Biso   1.000  O 
  C21      1.0000 0.27700  0.26830  0.73510  Biso   1.000  C 
  H12      1.0000 0.29059  0.31025  0.73845  Biso   1.000  H 
  C22      1.0000 0.32600  0.22410  0.70640  Biso   1.000  C 
  H13      1.0000 0.37255  0.23572  0.68941  Biso   1.000  H 
  O5       1.0000 0.34547  0.05832  0.69220  Biso   1.000  O 
  O6       1.0000 0.52805  0.06359  0.44690  Biso   1.000  O 
  N3       1.0000 0.56946  0.10776  0.39840  Biso   1.000  N 
  C23      1.0000 0.62630  0.09280  0.32020  Biso   1.000  C 
  H14      1.0000 0.63605  0.05084  0.29976  Biso   1.000  H 
  C24      1.0000 0.67010  0.13690  0.26990  Biso   1.000  C 
  H15      1.0000 0.70948  0.12529  0.21323  Biso   1.000  H 
  C25      1.0000 0.65800  0.19869  0.30030  Biso   1.000  C 
  C26      1.0000 0.59800  0.21290  0.37650  Biso   1.000  C 
  H16      1.0000 0.58700  0.25455  0.39652  Biso   1.000  H 
  C27      1.0000 0.55390  0.16731  0.42380  Biso   1.000  C 
  H17      1.0000 0.51260  0.17782  0.47431  Biso   1.000  H 
  C28      1.0000 0.70850  0.24680  0.25900  Biso   1.000  C 
  C29      1.0000 0.68990  0.30840  0.24590  Biso   1.000  C 
  H18      1.0000 0.64254  0.31978  0.25518  Biso   1.000  H 
  C30      1.0000 0.73800  0.35340  0.21980  Biso   1.000  C 
  H19      1.0000 0.72414  0.39524  0.21378  Biso   1.000  H 
  C31      1.0000 0.80690  0.33730  0.20250  Biso   1.000  C 
  C32      1.0000 0.82600  0.27590  0.20640  Biso   1.000  C 
  C33      1.0000 0.77700  0.23170  0.23510  Biso   1.000  C 
  H20      1.0000 0.79059  0.18975  0.23845  Biso   1.000  H 
  H21      1.0000 0.87255  0.26428  0.18941  Biso   1.000  H 
  C34      1.0000 0.86230  0.38540  0.18960  Biso   1.000  C 
  O7       1.0000 0.92488  0.36720  0.18370  Biso   1.000  O 
  O8       1.0000 0.84547  0.44168  0.19220  Biso   1.000  O 
  O9       1.0000 0.57512  0.13280  0.81630  Biso   1.000  O 
  C35      1.0000 0.63770  0.11460  0.81040  Biso   1.000  C 
  C36      1.0000 0.69310  0.16270  0.79750  Biso   1.000  C 
  C37      1.0000 0.67400  0.22410  0.79360  Biso   1.000  C 
  H22      1.0000 0.62745  0.23572  0.81059  Biso   1.000  H 
  C38      1.0000 0.72300  0.26830  0.76490  Biso   1.000  C 
  H23      1.0000 0.70941  0.31025  0.76155  Biso   1.000  H 
  C39      1.0000 0.79150  0.25320  0.74100  Biso   1.000  C 
  C40      1.0000 0.81010  0.19160  0.75410  Biso   1.000  C 
  C41      1.0000 0.76200  0.14660  0.78020  Biso   1.000  C 
  H24      1.0000 0.77586  0.10476  0.78622  Biso   1.000  H 
  H25      1.0000 0.85746  0.18022  0.74482  Biso   1.000  H 
  C42      1.0000 0.84200  0.30131  0.69970  Biso   1.000  C 
  C43      1.0000 0.90200  0.28710  0.62350  Biso   1.000  C 
  H26      1.0000 0.91299  0.24545  0.60348  Biso   1.000  H 
  C44      1.0000 0.94610  0.33269  0.57620  Biso   1.000  C 
  H27      1.0000 0.98740  0.32218  0.52568  Biso   1.000  H 
  N4       1.0000 0.93054  0.39224  0.60160  Biso   1.000  N 
  C45      1.0000 0.87370  0.40720  0.67980  Biso   1.000  C 
  H28      1.0000 0.86395  0.44916  0.70024  Biso   1.000  H 
  C46      1.0000 0.82990  0.36310  0.73010  Biso   1.000  C 
  H29      1.0000 0.79052  0.37471  0.78677  Biso   1.000  H 
  O10      1.0000 0.97195  0.43641  0.55310  Biso   1.000  O 
  O11      1.0000 0.65453  0.05832  0.80780  Biso   1.000  O 
  H30      1.0000 0.29052  0.12529  0.28677  Biso   1.000  H 
  C47      1.0000 0.31010  0.30840  0.25410  Biso   1.000  C 
  H31      1.0000 0.35746  0.31978  0.24482  Biso   1.000  H 
  C48      1.0000 0.26200  0.35340  0.28020  Biso   1.000  C 
  H32      1.0000 0.27586  0.39524  0.28622  Biso   1.000  H 
  O12      1.0000 0.15453  0.44168  0.30780  Biso   1.000  O 
