data_image0
_cell_length_a       7.9944
_cell_length_b       16.488
_cell_length_c       12.0209
_cell_angle_alpha    90
_cell_angle_beta     90
_cell_angle_gamma    90

_symmetry_space_group_name_H-M    "P 1"
_symmetry_int_tables_number       1

loop_
  _symmetry_equiv_pos_as_xyz
  'x, y, z'

loop_
  _atom_site_label
  _atom_site_occupancy
  _atom_site_fract_x
  _atom_site_fract_y
  _atom_site_fract_z
  _atom_site_thermal_displace_type
  _atom_site_B_iso_or_equiv
  _atom_site_type_symbol
  Cu1      1.0000 0.22934  0.73884  0.96145  Biso   1.000  Cu
  N1       1.0000 0.19620  0.61860  0.96870  Biso   1.000  N 
  C1       1.0000 0.27910  0.56640  0.90060  Biso   1.000  C 
  C2       1.0000 0.24840  0.48320  0.90920  Biso   1.000  C 
  H1       1.0000 0.30560  0.44690  0.86390  Biso   1.000  H 
  C3       1.0000 0.13450  0.45590  0.98400  Biso   1.000  C 
  H2       1.0000 0.11520  0.40050  0.98970  Biso   1.000  H 
  C4       1.0000 0.04940  0.50660  0.04960  Biso   1.000  C 
  H3       1.0000 0.96900  0.48770  0.09920  Biso   1.000  H 
  C5       1.0000 0.08590  0.58810  0.04080  Biso   1.000  C 
  H4       1.0000 0.03040  0.62390  0.08790  Biso   1.000  H 
  C6       1.0000 0.40720  0.60270  0.82530  Biso   1.000  C 
  H5       1.0000 0.46020  0.55980  0.78280  Biso   1.000  H 
  H6       1.0000 0.49280  0.62880  0.86990  Biso   1.000  H 
  C7       1.0000 0.33390  0.66340  0.74680  Biso   1.000  C 
  H7       1.0000 0.41510  0.67560  0.68920  Biso   1.000  H 
  H8       1.0000 0.23620  0.64000  0.71130  Biso   1.000  H 
  N2       1.0000 0.28490  0.74000  0.80330  Biso   1.000  N 
  C8       1.0000 0.27730  0.80360  0.74110  Biso   1.000  C 
  H9       1.0000 0.31250  0.79740  0.66790  Biso   1.000  H 
  C9       1.0000 0.22080  0.88200  0.77230  Biso   1.000  C 
  C10      1.0000 0.22590  0.94240  0.69080  Biso   1.000  C 
  H10      1.0000 0.26540  0.92950  0.62020  Biso   1.000  H 
  C11      1.0000 0.17380  0.02020  0.71240  Biso   1.000  C 
  C12      1.0000 0.11570  0.03710  0.81590  Biso   1.000  C 
  H11      1.0000 0.07930  0.08950  0.83090  Biso   1.000  H 
  C13      1.0000 0.10800  0.98040  0.89950  Biso   1.000  C 
  H12      1.0000 0.06700  0.99490  0.96910  Biso   1.000  H 
  C14      1.0000 0.16190  0.90040  0.88030  Biso   1.000  C 
  O1       1.0000 0.16180  0.84830  0.96190  Biso   1.000  O 
  H13      1.0000 0.17830  0.06000  0.65780  Biso   1.000  H 
  N3       1.0000 0.26680  0.74310  0.12210  Biso   1.000  N 
  C15      1.0000 0.28680  0.74600  0.21620  Biso   1.000  C 
  Cu2      1.0000 0.30461  0.75023  0.37395  Biso   1.000  Cu
  N4       1.0000 0.11280  0.73930  0.47630  Biso   1.000  N 
  C16      1.0000 0.00010  0.73880  0.53830  Biso   1.000  C 
  Cu3      1.0000 0.80461  0.74977  0.62605  Biso   1.000  Cu
  C17      1.0000 0.78680  0.75400  0.78380  Biso   1.000  C 
  N5       1.0000 0.76680  0.75690  0.87790  Biso   1.000  N 
  Cu4      1.0000 0.72934  0.76116  0.03855  Biso   1.000  Cu
  O2       1.0000 0.66180  0.65170  0.03810  Biso   1.000  O 
  C18      1.0000 0.66190  0.59960  0.11970  Biso   1.000  C 
  C19      1.0000 0.72080  0.61800  0.22770  Biso   1.000  C 
  C20      1.0000 0.72590  0.55760  0.30920  Biso   1.000  C 
  H14      1.0000 0.76540  0.57050  0.37980  Biso   1.000  H 
  C21      1.0000 0.67380  0.47980  0.28760  Biso   1.000  C 
  H15      1.0000 0.67830  0.44000  0.34220  Biso   1.000  H 
  C22      1.0000 0.61570  0.46290  0.18410  Biso   1.000  C 
  H16      1.0000 0.57930  0.41050  0.16910  Biso   1.000  H 
  C23      1.0000 0.60800  0.51960  0.10050  Biso   1.000  C 
  H17      1.0000 0.56700  0.50510  0.03090  Biso   1.000  H 
  C24      1.0000 0.77730  0.69640  0.25890  Biso   1.000  C 
  H18      1.0000 0.81250  0.70260  0.33210  Biso   1.000  H 
  N6       1.0000 0.78490  0.76000  0.19670  Biso   1.000  N 
  C25      1.0000 0.83390  0.83660  0.25320  Biso   1.000  C 
  H19      1.0000 0.73620  0.86000  0.28870  Biso   1.000  H 
  H20      1.0000 0.91510  0.82440  0.31080  Biso   1.000  H 
  C26      1.0000 0.90720  0.89730  0.17470  Biso   1.000  C 
  H21      1.0000 0.96020  0.94020  0.21720  Biso   1.000  H 
  H22      1.0000 0.99280  0.87120  0.13010  Biso   1.000  H 
  C27      1.0000 0.77910  0.93360  0.09940  Biso   1.000  C 
  N7       1.0000 0.69620  0.88140  0.03130  Biso   1.000  N 
  C28      1.0000 0.58590  0.91190  0.95920  Biso   1.000  C 
  H23      1.0000 0.53040  0.87610  0.91210  Biso   1.000  H 
  C29      1.0000 0.54940  0.99340  0.95040  Biso   1.000  C 
  C30      1.0000 0.63450  0.04410  0.01600  Biso   1.000  C 
  H24      1.0000 0.61520  0.09950  0.01030  Biso   1.000  H 
  C31      1.0000 0.74840  0.01680  0.09080  Biso   1.000  C 
  H25      1.0000 0.80560  0.05310  0.13610  Biso   1.000  H 
  H26      1.0000 0.46900  0.01230  0.90080  Biso   1.000  H 
  N8       1.0000 0.61280  0.76070  0.52370  Biso   1.000  N 
  C32      1.0000 0.50010  0.76120  0.46170  Biso   1.000  C 
