data_image0
_cell_length_a       11.6755
_cell_length_b       12.2521
_cell_length_c       12.6399
_cell_angle_alpha    90
_cell_angle_beta     118.308
_cell_angle_gamma    90

_symmetry_space_group_name_H-M    "P 1"
_symmetry_int_tables_number       1

loop_
  _symmetry_equiv_pos_as_xyz
  'x, y, z'

loop_
  _atom_site_label
  _atom_site_occupancy
  _atom_site_fract_x
  _atom_site_fract_y
  _atom_site_fract_z
  _atom_site_thermal_displace_type
  _atom_site_B_iso_or_equiv
  _atom_site_type_symbol
  Cu1      1.0000 0.28858  0.03562  0.46738  Biso   1.000  Cu
  O1       1.0000 0.16070  0.13287  0.34204  Biso   1.000  O 
  C1       1.0000 0.05820  0.14910  0.35150  Biso   1.000  C 
  C2       1.0000 0.96680  0.23520  0.26790  Biso   1.000  C 
  C3       1.0000 0.87520  0.28230  0.29200  Biso   1.000  C 
  H1       1.0000 0.86320  0.25660  0.35520  Biso   1.000  H 
  C4       1.0000 0.80110  0.36750  0.22280  Biso   1.000  C 
  H2       1.0000 0.74190  0.40020  0.24260  Biso   1.000  H 
  N1       1.0000 0.81070  0.40510  0.12820  Biso   1.000  N 
  C5       1.0000 0.89640  0.35670  0.10140  Biso   1.000  C 
  H3       1.0000 0.90220  0.38070  0.03430  Biso   1.000  H 
  C6       1.0000 0.97620  0.27330  0.16830  Biso   1.000  C 
  H4       1.0000 0.03570  0.24260  0.14760  Biso   1.000  H 
  Cu2      1.0000 0.71142  0.53562  0.03262  Biso   1.000  Cu
  O2       1.0000 0.58070  0.54360  0.12420  Biso   1.000  O 
  C7       1.0000 0.50130  0.58580  0.14980  Biso   1.000  C 
  C8       1.0000 0.54820  0.67310  0.24610  Biso   1.000  C 
  C9       1.0000 0.48000  0.70530  0.30350  Biso   1.000  C 
  C10      1.0000 0.52840  0.78730  0.38980  Biso   1.000  C 
  H5       1.0000 0.48060  0.80770  0.42810  Biso   1.000  H 
  N2       1.0000 0.63970  0.83730  0.41930  Biso   1.000  N 
  C11      1.0000 0.70550  0.80640  0.36380  Biso   1.000  C 
  H6       1.0000 0.78350  0.84160  0.38320  Biso   1.000  H 
  C12      1.0000 0.66520  0.72470  0.27860  Biso   1.000  C 
  H7       1.0000 0.71630  0.70460  0.24350  Biso   1.000  H 
  Cu3      1.0000 0.71142  0.96438  0.53262  Biso   1.000  Cu
  O3       1.0000 0.83930  0.86713  0.65796  Biso   1.000  O 
  C13      1.0000 0.94180  0.85090  0.64850  Biso   1.000  C 
  C14      1.0000 0.03320  0.76480  0.73210  Biso   1.000  C 
  C15      1.0000 0.12480  0.71770  0.70800  Biso   1.000  C 
  H8       1.0000 0.13680  0.74340  0.64480  Biso   1.000  H 
  C16      1.0000 0.19890  0.63250  0.77720  Biso   1.000  C 
  H9       1.0000 0.25810  0.59980  0.75740  Biso   1.000  H 
  N3       1.0000 0.18930  0.59490  0.87180  Biso   1.000  N 
  C17      1.0000 0.10360  0.64330  0.89860  Biso   1.000  C 
  H10      1.0000 0.09780  0.61930  0.96570  Biso   1.000  H 
  C18      1.0000 0.02380  0.72670  0.83170  Biso   1.000  C 
  H11      1.0000 0.96430  0.75740  0.85240  Biso   1.000  H 
  Cu4      1.0000 0.28858  0.46438  0.96738  Biso   1.000  Cu
  O4       1.0000 0.16070  0.36713  0.84204  Biso   1.000  O 
  C19      1.0000 0.05820  0.35090  0.85150  Biso   1.000  C 
  C20      1.0000 0.96680  0.26480  0.76790  Biso   1.000  C 
  C21      1.0000 0.87520  0.21770  0.79200  Biso   1.000  C 
  H12      1.0000 0.86320  0.24340  0.85520  Biso   1.000  H 
  C22      1.0000 0.80110  0.13250  0.72280  Biso   1.000  C 
  N4       1.0000 0.81070  0.09490  0.62820  Biso   1.000  N 
  C23      1.0000 0.89640  0.14330  0.60140  Biso   1.000  C 
  H13      1.0000 0.90220  0.11930  0.53430  Biso   1.000  H 
  C24      1.0000 0.97620  0.22670  0.66830  Biso   1.000  C 
  H14      1.0000 0.03570  0.25740  0.64760  Biso   1.000  H 
  H15      1.0000 0.74190  0.09980  0.74260  Biso   1.000  H 
  O5       1.0000 0.03200  0.39520  0.92450  Biso   1.000  O 
  O6       1.0000 0.41930  0.45640  0.87580  Biso   1.000  O 
  C25      1.0000 0.49870  0.41420  0.85020  Biso   1.000  C 
  C26      1.0000 0.45180  0.32690  0.75390  Biso   1.000  C 
  C27      1.0000 0.33480  0.27530  0.72140  Biso   1.000  C 
  H16      1.0000 0.28370  0.29540  0.75650  Biso   1.000  H 
  C28      1.0000 0.29450  0.19360  0.63620  Biso   1.000  C 
  H17      1.0000 0.21650  0.15840  0.61680  Biso   1.000  H 
  N5       1.0000 0.36030  0.16270  0.58070  Biso   1.000  N 
  C29      1.0000 0.47160  0.21270  0.61020  Biso   1.000  C 
  H18      1.0000 0.51940  0.19230  0.57190  Biso   1.000  H 
  C30      1.0000 0.52000  0.29470  0.69650  Biso   1.000  C 
  H19      1.0000 0.59910  0.32780  0.71520  Biso   1.000  H 
  O7       1.0000 0.61900  0.43593  0.89670  Biso   1.000  O 
  N6       1.0000 0.36030  0.33730  0.08070  Biso   1.000  N 
  C31      1.0000 0.29450  0.30640  0.13620  Biso   1.000  C 
  H20      1.0000 0.21650  0.34160  0.11680  Biso   1.000  H 
  C32      1.0000 0.33480  0.22470  0.22140  Biso   1.000  C 
  H21      1.0000 0.28370  0.20460  0.25650  Biso   1.000  H 
  C33      1.0000 0.45180  0.17310  0.25390  Biso   1.000  C 
  C34      1.0000 0.52000  0.20530  0.19650  Biso   1.000  C 
  C35      1.0000 0.47160  0.28730  0.11020  Biso   1.000  C 
  H22      1.0000 0.51940  0.30770  0.07190  Biso   1.000  H 
  H23      1.0000 0.59910  0.17220  0.21520  Biso   1.000  H 
  C36      1.0000 0.49870  0.08580  0.35020  Biso   1.000  C 
  O8       1.0000 0.41930  0.04360  0.37580  Biso   1.000  O 
  O9       1.0000 0.61900  0.06407  0.39670  Biso   1.000  O 
  O10      1.0000 0.38100  0.56407  0.10330  Biso   1.000  O 
  O11      1.0000 0.96800  0.89520  0.57550  Biso   1.000  O 
  O12      1.0000 0.58070  0.95640  0.62420  Biso   1.000  O 
  C37      1.0000 0.50130  0.91420  0.64980  Biso   1.000  C 
  C38      1.0000 0.54820  0.82690  0.74610  Biso   1.000  C 
  C39      1.0000 0.48000  0.79470  0.80350  Biso   1.000  C 
  H24      1.0000 0.40090  0.82780  0.78480  Biso   1.000  H 
  C40      1.0000 0.52840  0.71270  0.88980  Biso   1.000  C 
  H25      1.0000 0.48060  0.69230  0.92810  Biso   1.000  H 
  N7       1.0000 0.63970  0.66270  0.91930  Biso   1.000  N 
  C41      1.0000 0.70550  0.69360  0.86380  Biso   1.000  C 
  H26      1.0000 0.78350  0.65840  0.88320  Biso   1.000  H 
  C42      1.0000 0.66520  0.77530  0.77860  Biso   1.000  C 
  H27      1.0000 0.71630  0.79540  0.74350  Biso   1.000  H 
  O13      1.0000 0.38100  0.93593  0.60330  Biso   1.000  O 
  H28      1.0000 0.40090  0.67220  0.28480  Biso   1.000  H 
  O14      1.0000 0.83930  0.63287  0.15796  Biso   1.000  O 
  C43      1.0000 0.94180  0.64910  0.14850  Biso   1.000  C 
  C44      1.0000 0.03320  0.73520  0.23210  Biso   1.000  C 
  C45      1.0000 0.12480  0.78230  0.20800  Biso   1.000  C 
  H29      1.0000 0.13680  0.75660  0.14480  Biso   1.000  H 
  C46      1.0000 0.19890  0.86750  0.27720  Biso   1.000  C 
  H30      1.0000 0.25810  0.90020  0.25740  Biso   1.000  H 
  N8       1.0000 0.18930  0.90510  0.37180  Biso   1.000  N 
  C47      1.0000 0.10360  0.85670  0.39860  Biso   1.000  C 
  H31      1.0000 0.09780  0.88070  0.46570  Biso   1.000  H 
  C48      1.0000 0.02380  0.77330  0.33170  Biso   1.000  C 
  H32      1.0000 0.96430  0.74260  0.35240  Biso   1.000  H 
  O15      1.0000 0.96800  0.60480  0.07550  Biso   1.000  O 
  O16      1.0000 0.03200  0.10480  0.42450  Biso   1.000  O 
