data_image0
_cell_length_a       7.607
_cell_length_b       7.5828
_cell_length_c       11.8468
_cell_angle_alpha    90
_cell_angle_beta     90
_cell_angle_gamma    90

_symmetry_space_group_name_H-M    "P 1"
_symmetry_int_tables_number       1

loop_
  _symmetry_equiv_pos_as_xyz
  'x, y, z'

loop_
  _atom_site_label
  _atom_site_occupancy
  _atom_site_fract_x
  _atom_site_fract_y
  _atom_site_fract_z
  _atom_site_thermal_displace_type
  _atom_site_B_iso_or_equiv
  _atom_site_type_symbol
  Zn1      1.0000 0.22120  0.25000  0.34731  Biso   1.000  Zn
  N1       1.0000 0.00670  0.25000  0.43460  Biso   1.000  N 
  C1       1.0000 0.86910  0.25000  0.47470  Biso   1.000  C 
  N2       1.0000 0.72160  0.25000  0.53020  Biso   1.000  N 
  C2       1.0000 0.57070  0.25000  0.47810  Biso   1.000  C 
  N3       1.0000 0.42990  0.25000  0.44340  Biso   1.000  N 
  H1       1.0000 0.72405  0.25000  0.61586  Biso   1.000  H 
  N4       1.0000 0.23110  0.04050  0.25090  Biso   1.000  N 
  C3       1.0000 0.27270  0.90020  0.22710  Biso   1.000  C 
  N5       1.0000 0.33370  0.75000  0.19140  Biso   1.000  N 
  C4       1.0000 0.27270  0.59980  0.22710  Biso   1.000  C 
  N6       1.0000 0.23110  0.45950  0.25090  Biso   1.000  N 
  H2       1.0000 0.43231  0.75000  0.13369  Biso   1.000  H 
