data_image0
_cell_length_a       11.377
_cell_length_b       12.012
_cell_length_c       12.477
_cell_angle_alpha    67.543
_cell_angle_beta     76.307
_cell_angle_gamma    89.829

_symmetry_space_group_name_H-M    "P 1"
_symmetry_int_tables_number       1

loop_
  _symmetry_equiv_pos_as_xyz
  'x, y, z'

loop_
  _atom_site_label
  _atom_site_occupancy
  _atom_site_fract_x
  _atom_site_fract_y
  _atom_site_fract_z
  _atom_site_thermal_displace_type
  _atom_site_B_iso_or_equiv
  _atom_site_type_symbol
  Cu1      1.0000 0.00000  0.00000  0.00000  Biso   1.000  Cu
  O1       1.0000 0.06720  0.03550  0.11920  Biso   1.000  O 
  C1       1.0000 0.00500  0.06660  0.19800  Biso   1.000  C 
  C2       1.0000 0.08120  0.11010  0.26260  Biso   1.000  C 
  F1       1.0000 0.15400  0.03700  0.29700  Biso   1.000  F 
  F2       1.0000 0.15300  0.21420  0.19450  Biso   1.000  F 
  F3       1.0000 0.01200  0.12200  0.36100  Biso   1.000  F 
  C3       1.0000 0.87910  0.06200  0.23230  Biso   1.000  C 
  H1       1.0000 0.84210  0.08460  0.29580  Biso   1.000  H 
  C4       1.0000 0.80670  0.02440  0.17400  Biso   1.000  C 
  O2       1.0000 0.83550  0.99210  0.09310  Biso   1.000  O 
  C5       1.0000 0.66720  0.01930  0.22430  Biso   1.000  C 
  F4       1.0000 0.61700  0.10500  0.14300  Biso   1.000  F 
  F5       1.0000 0.63220  0.05740  0.30750  Biso   1.000  F 
  F6       1.0000 0.61130  0.91300  0.24900  Biso   1.000  F 
  O3       1.0000 0.16450  0.00790  0.90690  Biso   1.000  O 
  C6       1.0000 0.19330  0.97560  0.82600  Biso   1.000  C 
  C7       1.0000 0.12090  0.93800  0.76770  Biso   1.000  C 
  H2       1.0000 0.15790  0.91540  0.70420  Biso   1.000  H 
  C8       1.0000 0.99500  0.93340  0.80200  Biso   1.000  C 
  C9       1.0000 0.91880  0.88990  0.73740  Biso   1.000  C 
  F7       1.0000 0.84700  0.78580  0.80550  Biso   1.000  F 
  F8       1.0000 0.98800  0.87800  0.63900  Biso   1.000  F 
  F9       1.0000 0.84600  0.96300  0.70300  Biso   1.000  F 
  O4       1.0000 0.93280  0.96450  0.88080  Biso   1.000  O 
  C10      1.0000 0.33280  0.98070  0.77570  Biso   1.000  C 
  F10      1.0000 0.36780  0.94260  0.69250  Biso   1.000  F 
  F11      1.0000 0.38300  0.89500  0.85700  Biso   1.000  F 
  F12      1.0000 0.38870  0.08700  0.75100  Biso   1.000  F 
  O5       1.0000 0.01460  0.79720  0.07510  Biso   1.000  O 
  N1       1.0000 0.97060  0.72070  0.18570  Biso   1.000  N 
  C11      1.0000 0.84480  0.68720  0.22020  Biso   1.000  C 
  C12      1.0000 0.76970  0.72710  0.14530  Biso   1.000  C 
  H3       1.0000 0.79310  0.77990  0.06400  Biso   1.000  H 
  N2       1.0000 0.65690  0.67750  0.20860  Biso   1.000  N 
  C13      1.0000 0.54320  0.69320  0.16930  Biso   1.000  C 
  H4       1.0000 0.50090  0.61290  0.19430  Biso   1.000  H 
  H5       1.0000 0.49100  0.73670  0.21140  Biso   1.000  H 
  C14      1.0000 0.55630  0.75390  0.04860  Biso   1.000  C 
  H6       1.0000 0.59620  0.83450  0.02270  Biso   1.000  H 
  H7       1.0000 0.47690  0.76000  0.03210  Biso   1.000  H 
  H8       1.0000 0.60510  0.71040  0.00570  Biso   1.000  H 
  N3       1.0000 0.65450  0.60760  0.32370  Biso   1.000  N 
  Cu2      1.0000 0.50000  0.50000  0.50000  Biso   1.000  Cu
  O6       1.0000 0.40950  0.43860  0.41300  Biso   1.000  O 
  C15      1.0000 0.42760  0.34150  0.39810  Biso   1.000  C 
  C16      1.0000 0.34590  0.31120  0.32910  Biso   1.000  C 
  F13      1.0000 0.39200  0.24900  0.27100  Biso   1.000  F 
  F14      1.0000 0.31600  0.40400  0.25600  Biso   1.000  F 
  F15      1.0000 0.24300  0.24800  0.41000  Biso   1.000  F 
  C17      1.0000 0.50990  0.25930  0.43700  Biso   1.000  C 
  H9       1.0000 0.51220  0.18990  0.41930  Biso   1.000  H 
  C18      1.0000 0.58840  0.27470  0.50030  Biso   1.000  C 
  O7       1.0000 0.59860  0.36170  0.53250  Biso   1.000  O 
  C19      1.0000 0.67570  0.18140  0.53820  Biso   1.000  C 
  F16      1.0000 0.67200  0.09400  0.50800  Biso   1.000  F 
  F17      1.0000 0.79800  0.24100  0.46200  Biso   1.000  F 
  F18      1.0000 0.68100  0.15500  0.63200  Biso   1.000  F 
  N4       1.0000 0.34550  0.39240  0.67630  Biso   1.000  N 
  N5       1.0000 0.34310  0.32250  0.79140  Biso   1.000  N 
  C20      1.0000 0.23030  0.27290  0.85470  Biso   1.000  C 
  H10      1.0000 0.20690  0.22010  0.93600  Biso   1.000  H 
  C21      1.0000 0.15520  0.31280  0.77980  Biso   1.000  C 
  C22      1.0000 0.23280  0.38860  0.66890  Biso   1.000  C 
  H11      1.0000 0.20710  0.43070  0.59900  Biso   1.000  H 
  N6       1.0000 0.02940  0.27930  0.81430  Biso   1.000  N 
  O8       1.0000 0.98540  0.20280  0.92490  Biso   1.000  O 
  C23      1.0000 0.94710  0.32470  0.73200  Biso   1.000  C 
  C24      1.0000 0.81710  0.26830  0.80620  Biso   1.000  C 
  H12      1.0000 0.76070  0.29770  0.75650  Biso   1.000  H 
  H13      1.0000 0.79500  0.29100  0.87460  Biso   1.000  H 
  H14      1.0000 0.81400  0.18090  0.83400  Biso   1.000  H 
  C25      1.0000 0.98640  0.27960  0.63010  Biso   1.000  C 
  H15      1.0000 0.93500  0.30880  0.57510  Biso   1.000  H 
  H16      1.0000 0.97860  0.19180  0.66350  Biso   1.000  H 
  H17      1.0000 0.07030  0.30970  0.58740  Biso   1.000  H 
  C26      1.0000 0.95450  0.46290  0.68660  Biso   1.000  C 
  H18      1.0000 0.90150  0.49320  0.63330  Biso   1.000  H 
  H19      1.0000 0.92900  0.48640  0.75420  Biso   1.000  H 
  H20      1.0000 0.03750  0.49660  0.64350  Biso   1.000  H 
  C27      1.0000 0.45680  0.30680  0.83070  Biso   1.000  C 
  C28      1.0000 0.44370  0.24610  0.95140  Biso   1.000  C 
  H21      1.0000 0.39490  0.28960  0.99430  Biso   1.000  H 
  H22      1.0000 0.52310  0.24000  0.96790  Biso   1.000  H 
  H23      1.0000 0.40380  0.16550  0.97730  Biso   1.000  H 
  H24      1.0000 0.50900  0.26330  0.78860  Biso   1.000  H 
  H25      1.0000 0.49910  0.38710  0.80570  Biso   1.000  H 
  O9       1.0000 0.40140  0.63830  0.46750  Biso   1.000  O 
  C29      1.0000 0.41160  0.72530  0.49970  Biso   1.000  C 
  C30      1.0000 0.49010  0.74070  0.56300  Biso   1.000  C 
  H26      1.0000 0.48780  0.81010  0.58070  Biso   1.000  H 
  C31      1.0000 0.57240  0.65850  0.60190  Biso   1.000  C 
  O10      1.0000 0.59050  0.56140  0.58700  Biso   1.000  O 
  C32      1.0000 0.65410  0.68880  0.67090  Biso   1.000  C 
  F19      1.0000 0.75700  0.75200  0.59000  Biso   1.000  F 
  F20      1.0000 0.68400  0.59600  0.74400  Biso   1.000  F 
  F21      1.0000 0.60800  0.75100  0.72900  Biso   1.000  F 
  C33      1.0000 0.32430  0.81860  0.46180  Biso   1.000  C 
  F22      1.0000 0.31900  0.84500  0.36800  Biso   1.000  F 
  F23      1.0000 0.20200  0.75900  0.53800  Biso   1.000  F 
  F24      1.0000 0.32800  0.90600  0.49200  Biso   1.000  F 
  C34      1.0000 0.76720  0.61140  0.33110  Biso   1.000  C 
  H27      1.0000 0.79290  0.56930  0.40100  Biso   1.000  H 
  C35      1.0000 0.05290  0.67530  0.26800  Biso   1.000  C 
  C36      1.0000 0.04550  0.53710  0.31340  Biso   1.000  C 
  H28      1.0000 0.07100  0.51360  0.24580  Biso   1.000  H 
  H29      1.0000 0.09850  0.50680  0.36670  Biso   1.000  H 
  H30      1.0000 0.96250  0.50340  0.35650  Biso   1.000  H 
  C37      1.0000 0.01360  0.72040  0.36990  Biso   1.000  C 
  H31      1.0000 0.02140  0.80820  0.33650  Biso   1.000  H 
  H32      1.0000 0.06500  0.69120  0.42490  Biso   1.000  H 
  H33      1.0000 0.92970  0.69030  0.41260  Biso   1.000  H 
  C38      1.0000 0.18290  0.73170  0.19380  Biso   1.000  C 
  H34      1.0000 0.18600  0.81910  0.16600  Biso   1.000  H 
  H35      1.0000 0.20500  0.70900  0.12540  Biso   1.000  H 
  H36      1.0000 0.23930  0.70230  0.24350  Biso   1.000  H 
