data_image0
_cell_length_a       11.099
_cell_length_b       19.106
_cell_length_c       12.558
_cell_angle_alpha    90
_cell_angle_beta     104.1
_cell_angle_gamma    90

_symmetry_space_group_name_H-M    "P 1"
_symmetry_int_tables_number       1

loop_
  _symmetry_equiv_pos_as_xyz
  'x, y, z'

loop_
  _atom_site_label
  _atom_site_occupancy
  _atom_site_fract_x
  _atom_site_fract_y
  _atom_site_fract_z
  _atom_site_thermal_displace_type
  _atom_site_B_iso_or_equiv
  _atom_site_type_symbol
  Cu1      1.0000 0.00000  0.20632  0.25000  Biso   1.000  Cu
  O1       1.0000 0.00000  0.09670  0.25000  Biso   1.000  O 
  C1       1.0000 0.00000  0.03410  0.25000  Biso   1.000  C 
  C2       1.0000 0.93330  0.99290  0.31570  Biso   1.000  C 
  H1       1.0000 0.94150  0.94480  0.30570  Biso   1.000  H 
  H2       1.0000 0.84570  0.00420  0.29410  Biso   1.000  H 
  H3       1.0000 0.96220  0.00460  0.39180  Biso   1.000  H 
  C3       1.0000 0.06670  0.99290  0.18430  Biso   1.000  C 
  H4       1.0000 0.05850  0.94480  0.19430  Biso   1.000  H 
  H5       1.0000 0.15430  0.00420  0.20590  Biso   1.000  H 
  H6       1.0000 0.03780  0.00460  0.10820  Biso   1.000  H 
  N1       1.0000 0.82580  0.23090  0.20610  Biso   1.000  N 
  C4       1.0000 0.74200  0.19400  0.23580  Biso   1.000  C 
  H7       1.0000 0.77350  0.15350  0.28230  Biso   1.000  H 
  N2       1.0000 0.61890  0.20440  0.20490  Biso   1.000  N 
  C5       1.0000 0.57900  0.25780  0.13730  Biso   1.000  C 
  C6       1.0000 0.66160  0.30150  0.10040  Biso   1.000  C 
  C7       1.0000 0.78840  0.28750  0.13830  Biso   1.000  C 
  C8       1.0000 0.87640  0.33120  0.10680  Biso   1.000  C 
  H8       1.0000 0.96680  0.31950  0.13430  Biso   1.000  H 
  C9       1.0000 0.83670  0.38640  0.04010  Biso   1.000  C 
  H9       1.0000 0.89660  0.41610  0.02030  Biso   1.000  H 
  C10      1.0000 0.70950  0.40160  0.00260  Biso   1.000  C 
  H10      1.0000 0.68620  0.43310  0.94130  Biso   1.000  H 
  C11      1.0000 0.62230  0.35850  0.02900  Biso   1.000  C 
  H11      1.0000 0.52690  0.36940  0.99100  Biso   1.000  H 
  H12      1.0000 0.47960  0.26390  0.11080  Biso   1.000  H 
  Cu2      1.0000 0.50000  0.13811  0.25000  Biso   1.000  Cu
  N3       1.0000 0.38110  0.20440  0.29510  Biso   1.000  N 
  C12      1.0000 0.25800  0.19400  0.26420  Biso   1.000  C 
  H13      1.0000 0.22650  0.15350  0.21770  Biso   1.000  H 
  N4       1.0000 0.17420  0.23090  0.29390  Biso   1.000  N 
  C13      1.0000 0.21160  0.28750  0.36170  Biso   1.000  C 
  C14      1.0000 0.33840  0.30150  0.39960  Biso   1.000  C 
  C15      1.0000 0.37770  0.35850  0.47100  Biso   1.000  C 
  C16      1.0000 0.29050  0.40160  0.49740  Biso   1.000  C 
  C17      1.0000 0.16330  0.38640  0.45990  Biso   1.000  C 
  C18      1.0000 0.12360  0.33120  0.39320  Biso   1.000  C 
  H14      1.0000 0.03320  0.31950  0.36570  Biso   1.000  H 
  H15      1.0000 0.10340  0.41610  0.47970  Biso   1.000  H 
  H16      1.0000 0.31380  0.43310  0.55870  Biso   1.000  H 
  H17      1.0000 0.47310  0.36940  0.50900  Biso   1.000  H 
  C19      1.0000 0.42100  0.25780  0.36270  Biso   1.000  C 
  H18      1.0000 0.52040  0.26390  0.38920  Biso   1.000  H 
  C20      1.0000 0.44800  0.03790  0.26530  Biso   1.000  C 
  H19      1.0000 0.44370  0.02890  0.33890  Biso   1.000  H 
  H20      1.0000 0.36480  0.03070  0.21860  Biso   1.000  H 
  C21      1.0000 0.55200  0.03790  0.23470  Biso   1.000  C 
  H21      1.0000 0.63520  0.03070  0.28140  Biso   1.000  H 
  H22      1.0000 0.55630  0.02890  0.16110  Biso   1.000  H 
