data_image0
_cell_length_a       16.867
_cell_length_b       17.127
_cell_length_c       11.97
_cell_angle_alpha    90
_cell_angle_beta     93.268
_cell_angle_gamma    90

_symmetry_space_group_name_H-M    "P 1"
_symmetry_int_tables_number       1

loop_
  _symmetry_equiv_pos_as_xyz
  'x, y, z'

loop_
  _atom_site_label
  _atom_site_occupancy
  _atom_site_fract_x
  _atom_site_fract_y
  _atom_site_fract_z
  _atom_site_thermal_displace_type
  _atom_site_B_iso_or_equiv
  _atom_site_type_symbol
  Cd1      1.0000 0.00000  0.31505  0.75000  Biso   1.000  Cd
  C1       1.0000 0.09071  0.27005  0.58286  Biso   1.000  C 
  C2       1.0000 0.16380  0.24758  0.51950  Biso   1.000  C 
  H1       1.0000 0.14680  0.20950  0.46200  Biso   1.000  H 
  C3       1.0000 0.20070  0.31671  0.46070  Biso   1.000  C 
  H2       1.0000 0.16180  0.33890  0.40690  Biso   1.000  H 
  H3       1.0000 0.21530  0.35670  0.51550  Biso   1.000  H 
  C4       1.0000 0.27404  0.29218  0.40070  Biso   1.000  C 
  H4       1.0000 0.25840  0.25650  0.34050  Biso   1.000  H 
  H5       1.0000 0.29750  0.33790  0.36780  Biso   1.000  H 
  C5       1.0000 0.33620  0.25242  0.48050  Biso   1.000  C 
  C6       1.0000 0.29930  0.18329  0.53930  Biso   1.000  C 
  H6       1.0000 0.28470  0.14330  0.48450  Biso   1.000  H 
  H7       1.0000 0.33820  0.16110  0.59310  Biso   1.000  H 
  C7       1.0000 0.22596  0.20782  0.59930  Biso   1.000  C 
  H8       1.0000 0.20250  0.16210  0.63220  Biso   1.000  H 
  H9       1.0000 0.24160  0.24350  0.65950  Biso   1.000  H 
  H10      1.0000 0.35320  0.29050  0.53800  Biso   1.000  H 
  C8       1.0000 0.40929  0.22995  0.41714  Biso   1.000  C 
  Cd2      1.0000 0.50000  0.18495  0.25000  Biso   1.000  Cd
  N1       1.0000 0.37366  0.16330  0.15707  Biso   1.000  N 
  C9       1.0000 0.32364  0.11170  0.20030  Biso   1.000  C 
  C10      1.0000 0.25909  0.08024  0.14083  Biso   1.000  C 
  H11      1.0000 0.22640  0.04490  0.17520  Biso   1.000  H 
  C11      1.0000 0.24230  0.10104  0.02914  Biso   1.000  C 
  C12      1.0000 0.29314  0.15624  0.98630  Biso   1.000  C 
  H12      1.0000 0.28430  0.17370  0.91310  Biso   1.000  H 
  C13      1.0000 0.35665  0.18528  0.05180  Biso   1.000  C 
  H13      1.0000 0.38920  0.22220  0.02060  Biso   1.000  H 
  C14      1.0000 0.17615  0.06581  0.95972  Biso   1.000  C 
  C15      1.0000 0.14599  0.10099  0.86076  Biso   1.000  C 
  C16      1.0000 0.08793  0.06588  0.79174  Biso   1.000  C 
  H14      1.0000 0.06970  0.09020  0.72580  Biso   1.000  H 
  C17      1.0000 0.05667  0.99359  0.82137  Biso   1.000  C 
  C18      1.0000 0.08377  0.95924  0.92200  Biso   1.000  C 
  C19      1.0000 0.14279  0.99440  0.98910  Biso   1.000  C 
  H15      1.0000 0.16080  0.97010  0.05530  Biso   1.000  H 
  H16      1.0000 0.06190  0.91220  0.94410  Biso   1.000  H 
  N2       1.0000 0.00000  0.95444  0.75000  Biso   1.000  N 
  C20      1.0000 0.00000  0.87104  0.75000  Biso   1.000  C 
  C21      1.0000 0.06565  0.83070  0.71820  Biso   1.000  C 
  H17      1.0000 0.11010  0.85780  0.69680  Biso   1.000  H 
  C22      1.0000 0.06557  0.74982  0.71790  Biso   1.000  C 
  H18      1.0000 0.11010  0.72310  0.69590  Biso   1.000  H 
  C23      1.0000 0.00000  0.70810  0.75000  Biso   1.000  C 
  C24      1.0000 0.00000  0.62162  0.75000  Biso   1.000  C 
  C25      1.0000 0.98474  0.57990  0.84480  Biso   1.000  C 
  H19      1.0000 0.97430  0.60580  0.91060  Biso   1.000  H 
  C26      1.0000 0.98505  0.49931  0.84110  Biso   1.000  C 
  H20      1.0000 0.97420  0.47220  0.90580  Biso   1.000  H 
  N3       1.0000 0.00000  0.45822  0.75000  Biso   1.000  N 
  C27      1.0000 0.01495  0.49931  0.65890  Biso   1.000  C 
  H21      1.0000 0.02580  0.47220  0.59420  Biso   1.000  H 
  C28      1.0000 0.01526  0.57990  0.65520  Biso   1.000  C 
  H22      1.0000 0.02570  0.60580  0.58940  Biso   1.000  H 
  C29      1.0000 0.93443  0.74982  0.78210  Biso   1.000  C 
  H23      1.0000 0.88990  0.72310  0.80410  Biso   1.000  H 
  C30      1.0000 0.93435  0.83070  0.78180  Biso   1.000  C 
  H24      1.0000 0.88990  0.85780  0.80320  Biso   1.000  H 
  C31      1.0000 0.94333  0.99359  0.67863  Biso   1.000  C 
  C32      1.0000 0.91623  0.95924  0.57800  Biso   1.000  C 
  H25      1.0000 0.93810  0.91220  0.55590  Biso   1.000  H 
  C33      1.0000 0.85721  0.99440  0.51090  Biso   1.000  C 
  H26      1.0000 0.83920  0.97010  0.44470  Biso   1.000  H 
  C34      1.0000 0.82385  0.06581  0.54028  Biso   1.000  C 
  C35      1.0000 0.85401  0.10099  0.63924  Biso   1.000  C 
  C36      1.0000 0.91207  0.06588  0.70826  Biso   1.000  C 
  H27      1.0000 0.93030  0.09020  0.77420  Biso   1.000  H 
  H28      1.0000 0.83440  0.14950  0.65920  Biso   1.000  H 
  C37      1.0000 0.75770  0.10104  0.47086  Biso   1.000  C 
  C38      1.0000 0.74091  0.08024  0.35917  Biso   1.000  C 
  H29      1.0000 0.77360  0.04490  0.32480  Biso   1.000  H 
  C39      1.0000 0.67636  0.11170  0.29970  Biso   1.000  C 
  H30      1.0000 0.66680  0.09650  0.22560  Biso   1.000  H 
  N4       1.0000 0.62634  0.16330  0.34293  Biso   1.000  N 
  C40      1.0000 0.64335  0.18528  0.44820  Biso   1.000  C 
  H31      1.0000 0.61080  0.22220  0.47940  Biso   1.000  H 
  C41      1.0000 0.70686  0.15624  0.51370  Biso   1.000  C 
  H32      1.0000 0.71570  0.17370  0.58690  Biso   1.000  H 
  H33      1.0000 0.16560  0.14950  0.84080  Biso   1.000  H 
  H34      1.0000 0.33320  0.09650  0.27440  Biso   1.000  H 
  O1       1.0000 0.43145  0.16054  0.41762  Biso   1.000  O 
  O2       1.0000 0.44165  0.28132  0.36105  Biso   1.000  O 
  N5       1.0000 0.50000  0.04178  0.25000  Biso   1.000  N 
  C42      1.0000 0.48505  0.00069  0.34110  Biso   1.000  C 
  H35      1.0000 0.47420  0.02780  0.40580  Biso   1.000  H 
  C43      1.0000 0.48474  0.92010  0.34480  Biso   1.000  C 
  H36      1.0000 0.47430  0.89420  0.41060  Biso   1.000  H 
  C44      1.0000 0.50000  0.87838  0.25000  Biso   1.000  C 
  C45      1.0000 0.50000  0.79190  0.25000  Biso   1.000  C 
  C46      1.0000 0.43443  0.75018  0.28210  Biso   1.000  C 
  C47      1.0000 0.43435  0.66930  0.28180  Biso   1.000  C 
  H37      1.0000 0.38990  0.64220  0.30320  Biso   1.000  H 
  C48      1.0000 0.50000  0.62896  0.25000  Biso   1.000  C 
  N6       1.0000 0.50000  0.54556  0.25000  Biso   1.000  N 
  C49      1.0000 0.44333  0.50641  0.17863  Biso   1.000  C 
  C50      1.0000 0.41623  0.54076  0.07800  Biso   1.000  C 
  C51      1.0000 0.35721  0.50560  0.01090  Biso   1.000  C 
  C52      1.0000 0.32385  0.43419  0.04028  Biso   1.000  C 
  C53      1.0000 0.35401  0.39901  0.13924  Biso   1.000  C 
  H38      1.0000 0.33440  0.35050  0.15920  Biso   1.000  H 
  C54      1.0000 0.41207  0.43412  0.20826  Biso   1.000  C 
  H39      1.0000 0.43030  0.40980  0.27420  Biso   1.000  H 
  C55      1.0000 0.25770  0.39896  0.97086  Biso   1.000  C 
  C56      1.0000 0.24091  0.41976  0.85917  Biso   1.000  C 
  H40      1.0000 0.27360  0.45510  0.82480  Biso   1.000  H 
  C57      1.0000 0.17636  0.38830  0.79970  Biso   1.000  C 
  H41      1.0000 0.16680  0.40350  0.72560  Biso   1.000  H 
  N7       1.0000 0.12634  0.33670  0.84293  Biso   1.000  N 
  C58      1.0000 0.14335  0.31472  0.94820  Biso   1.000  C 
  H42      1.0000 0.11080  0.27780  0.97940  Biso   1.000  H 
  C59      1.0000 0.20686  0.34376  0.01370  Biso   1.000  C 
  H43      1.0000 0.21570  0.32630  0.08690  Biso   1.000  H 
  H44      1.0000 0.33920  0.52990  0.94470  Biso   1.000  H 
  H45      1.0000 0.43810  0.58780  0.05590  Biso   1.000  H 
  C60      1.0000 0.55667  0.50641  0.32137  Biso   1.000  C 
  C61      1.0000 0.58377  0.54076  0.42200  Biso   1.000  C 
  H46      1.0000 0.56190  0.58780  0.44410  Biso   1.000  H 
  C62      1.0000 0.64279  0.50560  0.48910  Biso   1.000  C 
  H47      1.0000 0.66080  0.52990  0.55530  Biso   1.000  H 
  C63      1.0000 0.67615  0.43419  0.45972  Biso   1.000  C 
  C64      1.0000 0.64599  0.39901  0.36076  Biso   1.000  C 
  H48      1.0000 0.66560  0.35050  0.34080  Biso   1.000  H 
  C65      1.0000 0.58793  0.43412  0.29174  Biso   1.000  C 
  H49      1.0000 0.56970  0.40980  0.22580  Biso   1.000  H 
  C66      1.0000 0.74230  0.39896  0.52914  Biso   1.000  C 
  C67      1.0000 0.75909  0.41976  0.64083  Biso   1.000  C 
  H50      1.0000 0.72640  0.45510  0.67520  Biso   1.000  H 
  C68      1.0000 0.82364  0.38830  0.70030  Biso   1.000  C 
  H51      1.0000 0.83320  0.40350  0.77440  Biso   1.000  H 
  N8       1.0000 0.87366  0.33670  0.65707  Biso   1.000  N 
  C69      1.0000 0.85665  0.31472  0.55180  Biso   1.000  C 
  C70      1.0000 0.79314  0.34376  0.48630  Biso   1.000  C 
  H52      1.0000 0.78430  0.32630  0.41310  Biso   1.000  H 
  H53      1.0000 0.88920  0.27780  0.52060  Biso   1.000  H 
  C71      1.0000 0.56565  0.66930  0.21820  Biso   1.000  C 
  H54      1.0000 0.61010  0.64220  0.19680  Biso   1.000  H 
  C72      1.0000 0.56557  0.75018  0.21790  Biso   1.000  C 
  H55      1.0000 0.61010  0.77690  0.19590  Biso   1.000  H 
  H56      1.0000 0.38990  0.77690  0.30410  Biso   1.000  H 
  C73      1.0000 0.51526  0.92010  0.15520  Biso   1.000  C 
  H57      1.0000 0.52570  0.89420  0.08940  Biso   1.000  H 
  C74      1.0000 0.51495  0.00069  0.15890  Biso   1.000  C 
  H58      1.0000 0.52580  0.02780  0.09420  Biso   1.000  H 
  O3       1.0000 0.56855  0.16054  0.08238  Biso   1.000  O 
  C75      1.0000 0.59071  0.22995  0.08286  Biso   1.000  C 
  C76      1.0000 0.66380  0.25242  0.01950  Biso   1.000  C 
  C77      1.0000 0.72596  0.29218  0.09930  Biso   1.000  C 
  H59      1.0000 0.70250  0.33790  0.13220  Biso   1.000  H 
  C78      1.0000 0.79930  0.31671  0.03930  Biso   1.000  C 
  H60      1.0000 0.83820  0.33890  0.09310  Biso   1.000  H 
  C79      1.0000 0.83620  0.24758  0.98050  Biso   1.000  C 
  C80      1.0000 0.77404  0.20782  0.90070  Biso   1.000  C 
  C81      1.0000 0.70070  0.18329  0.96070  Biso   1.000  C 
  H61      1.0000 0.66180  0.16110  0.90690  Biso   1.000  H 
  H62      1.0000 0.71530  0.14330  0.01550  Biso   1.000  H 
  H63      1.0000 0.75840  0.24350  0.84050  Biso   1.000  H 
  H64      1.0000 0.79750  0.16210  0.86780  Biso   1.000  H 
  H65      1.0000 0.85320  0.20950  0.03800  Biso   1.000  H 
  C82      1.0000 0.90929  0.27005  0.91714  Biso   1.000  C 
  O4       1.0000 0.94165  0.21868  0.86105  Biso   1.000  O 
  O5       1.0000 0.93145  0.33946  0.91762  Biso   1.000  O 
  H66      1.0000 0.78470  0.35670  0.98450  Biso   1.000  H 
  H67      1.0000 0.74160  0.25650  0.15950  Biso   1.000  H 
  H68      1.0000 0.64680  0.29050  0.96200  Biso   1.000  H 
  O6       1.0000 0.55835  0.28132  0.13895  Biso   1.000  O 
  O7       1.0000 0.05835  0.21868  0.63895  Biso   1.000  O 
  O8       1.0000 0.06855  0.33946  0.58238  Biso   1.000  O 
