data_image0
_cell_length_a       12.8475
_cell_length_b       11.2028
_cell_length_c       12.8378
_cell_angle_alpha    90
_cell_angle_beta     96.01
_cell_angle_gamma    90

_symmetry_space_group_name_H-M    "P 1"
_symmetry_int_tables_number       1

loop_
  _symmetry_equiv_pos_as_xyz
  'x, y, z'

loop_
  _atom_site_label
  _atom_site_occupancy
  _atom_site_fract_x
  _atom_site_fract_y
  _atom_site_fract_z
  _atom_site_thermal_displace_type
  _atom_site_B_iso_or_equiv
  _atom_site_type_symbol
  Au1      1.0000 0.47501  0.62715  0.47462  Biso   1.000  Au
  Ag1      1.0000 0.49977  0.37724  0.50013  Biso   1.000  Ag
  N1       1.0000 0.34170  0.31040  0.42900  Biso   1.000  N 
  C1       1.0000 0.28050  0.24040  0.48080  Biso   1.000  C 
  C2       1.0000 0.18370  0.19680  0.43960  Biso   1.000  C 
  C3       1.0000 0.15070  0.23190  0.33590  Biso   1.000  C 
  C4       1.0000 0.21080  0.30130  0.28200  Biso   1.000  C 
  H1       1.0000 0.18680  0.32750  0.21330  Biso   1.000  H 
  C5       1.0000 0.31190  0.33510  0.33000  Biso   1.000  C 
  H2       1.0000 0.35850  0.37620  0.28980  Biso   1.000  H 
  H3       1.0000 0.08470  0.20580  0.30370  Biso   1.000  H 
  H4       1.0000 0.14240  0.14680  0.47870  Biso   1.000  H 
  N2       1.0000 0.31700  0.21460  0.58820  Biso   1.000  N 
  C6       1.0000 0.25850  0.22600  0.67140  Biso   1.000  C 
  H5       1.0000 0.18740  0.25010  0.66850  Biso   1.000  H 
  C7       1.0000 0.32030  0.19680  0.75580  Biso   1.000  C 
  H6       1.0000 0.30210  0.19730  0.82560  Biso   1.000  H 
  N3       1.0000 0.41660  0.16530  0.72460  Biso   1.000  N 
  C8       1.0000 0.50740  0.12420  0.79550  Biso   1.000  C 
  H7       1.0000 0.48960  0.04970  0.82950  Biso   1.000  H 
  H8       1.0000 0.52600  0.18530  0.84890  Biso   1.000  H 
  H9       1.0000 0.56700  0.11050  0.75520  Biso   1.000  H 
  C9       1.0000 0.41820  0.17710  0.62080  Biso   1.000  C 
  Au2      1.0000 0.52499  0.12715  0.52538  Biso   1.000  Au
  C10      1.0000 0.62070  0.07750  0.41780  Biso   1.000  C 
  N4       1.0000 0.72460  0.08930  0.41770  Biso   1.000  N 
  C11      1.0000 0.75650  0.05880  0.32180  Biso   1.000  C 
  C12      1.0000 0.67140  0.02890  0.25840  Biso   1.000  C 
  H10      1.0000 0.66890  0.00440  0.18730  Biso   1.000  H 
  N5       1.0000 0.58790  0.04060  0.31700  Biso   1.000  N 
  C13      1.0000 0.48110  0.01450  0.28030  Biso   1.000  C 
  C14      1.0000 0.43990  0.05930  0.18380  Biso   1.000  C 
  C15      1.0000 0.33690  0.02300  0.15030  Biso   1.000  C 
  H11      1.0000 0.30570  0.04710  0.08320  Biso   1.000  H 
  C16      1.0000 0.28030  0.95340  0.21260  Biso   1.000  C 
  H12      1.0000 0.21070  0.92970  0.18940  Biso   1.000  H 
  C17      1.0000 0.32690  0.91930  0.30890  Biso   1.000  C 
  H13      1.0000 0.28660  0.87660  0.35450  Biso   1.000  H 
  N6       1.0000 0.42870  0.94440  0.34170  Biso   1.000  N 
  Ag2      1.0000 0.50023  0.87724  0.49987  Biso   1.000  Ag
  N7       1.0000 0.38010  0.87750  0.61790  Biso   1.000  N 
  C18      1.0000 0.32310  0.87690  0.67660  Biso   1.000  C 
  C19      1.0000 0.24870  0.87810  0.75100  Biso   1.000  C 
  C20      1.0000 0.14340  0.90140  0.71730  Biso   1.000  C 
  H14      1.0000 0.12080  0.91530  0.64550  Biso   1.000  H 
  C21      1.0000 0.07370  0.90340  0.79160  Biso   1.000  C 
  H15      1.0000 0.00270  0.92240  0.76980  Biso   1.000  H 
  C22      1.0000 0.10100  0.87900  0.89500  Biso   1.000  C 
  H16      1.0000 0.05060  0.87930  0.94400  Biso   1.000  H 
  C23      1.0000 0.20580  0.85530  0.92510  Biso   1.000  C 
  H17      1.0000 0.22700  0.83910  0.99680  Biso   1.000  H 
  C24      1.0000 0.28050  0.85390  0.85530  Biso   1.000  C 
  H18      1.0000 0.35170  0.83690  0.87810  Biso   1.000  H 
  N8       1.0000 0.65830  0.81040  0.57100  Biso   1.000  N 
  C25      1.0000 0.68810  0.83510  0.67000  Biso   1.000  C 
  H19      1.0000 0.64150  0.87620  0.71020  Biso   1.000  H 
  C26      1.0000 0.78920  0.80130  0.71800  Biso   1.000  C 
  H20      1.0000 0.81320  0.82750  0.78670  Biso   1.000  H 
  C27      1.0000 0.84930  0.73190  0.66410  Biso   1.000  C 
  H21      1.0000 0.91530  0.70580  0.69630  Biso   1.000  H 
  C28      1.0000 0.81630  0.69680  0.56040  Biso   1.000  C 
  H22      1.0000 0.85760  0.64680  0.52130  Biso   1.000  H 
  C29      1.0000 0.71950  0.74040  0.51920  Biso   1.000  C 
  N9       1.0000 0.68300  0.71460  0.41180  Biso   1.000  N 
  C30      1.0000 0.58180  0.67710  0.37920  Biso   1.000  C 
  N10      1.0000 0.58340  0.66530  0.27540  Biso   1.000  N 
  C31      1.0000 0.67970  0.69680  0.24420  Biso   1.000  C 
  C32      1.0000 0.74150  0.72600  0.32860  Biso   1.000  C 
  H23      1.0000 0.81260  0.75010  0.33150  Biso   1.000  H 
  H24      1.0000 0.69790  0.69730  0.17440  Biso   1.000  H 
  C33      1.0000 0.49260  0.62420  0.20450  Biso   1.000  C 
  H25      1.0000 0.43300  0.61050  0.24480  Biso   1.000  H 
  H26      1.0000 0.47400  0.68530  0.15110  Biso   1.000  H 
  H27      1.0000 0.51040  0.54970  0.17050  Biso   1.000  H 
  H28      1.0000 0.47850  0.11080  0.14320  Biso   1.000  H 
  H29      1.0000 0.82640  0.05920  0.30400  Biso   1.000  H 
  C34      1.0000 0.79470  0.12940  0.50780  Biso   1.000  C 
  H30      1.0000 0.82830  0.20430  0.49050  Biso   1.000  H 
  H31      1.0000 0.75450  0.14230  0.56760  Biso   1.000  H 
  H32      1.0000 0.84840  0.06860  0.52590  Biso   1.000  H 
  N11      1.0000 0.61990  0.37750  0.38210  Biso   1.000  N 
  C35      1.0000 0.67690  0.37690  0.32340  Biso   1.000  C 
  C36      1.0000 0.75130  0.37810  0.24900  Biso   1.000  C 
  C37      1.0000 0.71950  0.35390  0.14470  Biso   1.000  C 
  H33      1.0000 0.64830  0.33690  0.12190  Biso   1.000  H 
  C38      1.0000 0.79420  0.35530  0.07490  Biso   1.000  C 
  H34      1.0000 0.77300  0.33910  0.00320  Biso   1.000  H 
  C39      1.0000 0.89900  0.37900  0.10500  Biso   1.000  C 
  H35      1.0000 0.94940  0.37930  0.05600  Biso   1.000  H 
  C40      1.0000 0.92630  0.40340  0.20840  Biso   1.000  C 
  C41      1.0000 0.85660  0.40140  0.28270  Biso   1.000  C 
  H36      1.0000 0.87920  0.41530  0.35450  Biso   1.000  H 
  H37      1.0000 0.99730  0.42240  0.23020  Biso   1.000  H 
  N12      1.0000 0.57130  0.44440  0.65830  Biso   1.000  N 
  C42      1.0000 0.51890  0.51450  0.71970  Biso   1.000  C 
  C43      1.0000 0.56010  0.55930  0.81620  Biso   1.000  C 
  H38      1.0000 0.52150  0.61080  0.85680  Biso   1.000  H 
  C44      1.0000 0.66310  0.52300  0.84970  Biso   1.000  C 
  C45      1.0000 0.71970  0.45340  0.78740  Biso   1.000  C 
  C46      1.0000 0.67310  0.41930  0.69110  Biso   1.000  C 
  H39      1.0000 0.71340  0.37660  0.64550  Biso   1.000  H 
  H40      1.0000 0.78930  0.42970  0.81060  Biso   1.000  H 
  H41      1.0000 0.69430  0.54710  0.91680  Biso   1.000  H 
  N13      1.0000 0.41210  0.54060  0.68300  Biso   1.000  N 
  C47      1.0000 0.32860  0.52890  0.74160  Biso   1.000  C 
  H42      1.0000 0.33110  0.50440  0.81270  Biso   1.000  H 
  C48      1.0000 0.24350  0.55880  0.67820  Biso   1.000  C 
  H43      1.0000 0.17360  0.55920  0.69600  Biso   1.000  H 
  N14      1.0000 0.27540  0.58930  0.58230  Biso   1.000  N 
  C49      1.0000 0.20530  0.62940  0.49220  Biso   1.000  C 
  H44      1.0000 0.17170  0.70430  0.50950  Biso   1.000  H 
  H45      1.0000 0.24550  0.64230  0.43240  Biso   1.000  H 
  H46      1.0000 0.15160  0.56860  0.47410  Biso   1.000  H 
  C50      1.0000 0.37930  0.57750  0.58220  Biso   1.000  C 
