data_image0
_cell_length_a       11.654
_cell_length_b       21.826
_cell_length_c       7.3928
_cell_angle_alpha    90
_cell_angle_beta     105.638
_cell_angle_gamma    90

_symmetry_space_group_name_H-M    "P 1"
_symmetry_int_tables_number       1

loop_
  _symmetry_equiv_pos_as_xyz
  'x, y, z'

loop_
  _atom_site_label
  _atom_site_occupancy
  _atom_site_fract_x
  _atom_site_fract_y
  _atom_site_fract_z
  _atom_site_thermal_displace_type
  _atom_site_B_iso_or_equiv
  _atom_site_type_symbol
  Cu1      1.0000 0.50000  0.86917  0.00000  Biso   1.000  Cu
  N1       1.0000 0.40500  0.93594  0.08740  Biso   1.000  N 
  C1       1.0000 0.39750  0.93620  0.26610  Biso   1.000  C 
  H1       1.0000 0.42480  0.90220  0.34130  Biso   1.000  H 
  C2       1.0000 0.35140  0.98440  0.34100  Biso   1.000  C 
  H2       1.0000 0.34980  0.98330  0.46600  Biso   1.000  H 
  C3       1.0000 0.30690  0.03500  0.23120  Biso   1.000  C 
  C4       1.0000 0.25960  0.08880  0.31230  Biso   1.000  C 
  C5       1.0000 0.20770  0.14180  0.19030  Biso   1.000  C 
  H3       1.0000 0.26720  0.15930  0.13800  Biso   1.000  H 
  H4       1.0000 0.14150  0.12810  0.09050  Biso   1.000  H 
  H5       1.0000 0.18090  0.17220  0.26370  Biso   1.000  H 
  N2       1.0000 0.26950  0.08620  0.48880  Biso   1.000  N 
  N3       1.0000 0.21530  0.13280  0.56220  Biso   1.000  N 
  C6       1.0000 0.28280  0.16990  0.67330  Biso   1.000  C 
  C7       1.0000 0.21940  0.21740  0.76020  Biso   1.000  C 
  C8       1.0000 0.09630  0.21370  0.72840  Biso   1.000  C 
  H6       1.0000 0.05360  0.18180  0.65770  Biso   1.000  H 
  C9       1.0000 0.03950  0.25773  0.80300  Biso   1.000  C 
  N4       1.0000 0.09480  0.30491  0.90670  Biso   1.000  N 
  C10      1.0000 0.21410  0.30700  0.93960  Biso   1.000  C 
  C11      1.0000 0.27890  0.26510  0.86840  Biso   1.000  C 
  H7       1.0000 0.36120  0.26890  0.89290  Biso   1.000  H 
  H8       1.0000 0.25500  0.33850  0.01450  Biso   1.000  H 
  Cu2      1.0000 0.00000  0.36917  0.00000  Biso   1.000  Cu
  O1       1.0000 0.13510  0.37540  0.31710  Biso   1.000  O 
  N5       1.0000 0.23220  0.35020  0.39400  Biso   1.000  N 
  O2       1.0000 0.30600  0.37420  0.53010  Biso   1.000  O 
  O3       1.0000 0.25500  0.29940  0.39300  Biso   1.000  O 
  N6       1.0000 0.09500  0.43594  0.91260  Biso   1.000  N 
  C12      1.0000 0.10250  0.43620  0.73390  Biso   1.000  C 
  H9       1.0000 0.07520  0.40220  0.65870  Biso   1.000  H 
  C13      1.0000 0.14860  0.48440  0.65900  Biso   1.000  C 
  H10      1.0000 0.15020  0.48330  0.53400  Biso   1.000  H 
  C14      1.0000 0.19310  0.53500  0.76880  Biso   1.000  C 
  C15      1.0000 0.24040  0.58880  0.68770  Biso   1.000  C 
  C16      1.0000 0.29230  0.64180  0.80970  Biso   1.000  C 
  H11      1.0000 0.35850  0.62810  0.90950  Biso   1.000  H 
  H12      1.0000 0.31910  0.67220  0.73630  Biso   1.000  H 
  H13      1.0000 0.23280  0.65930  0.86200  Biso   1.000  H 
  N7       1.0000 0.23050  0.58620  0.51120  Biso   1.000  N 
  N8       1.0000 0.28470  0.63280  0.43780  Biso   1.000  N 
  C17      1.0000 0.21720  0.66990  0.32670  Biso   1.000  C 
  C18      1.0000 0.28060  0.71740  0.23980  Biso   1.000  C 
  C19      1.0000 0.40370  0.71370  0.27160  Biso   1.000  C 
  H14      1.0000 0.44640  0.68180  0.34230  Biso   1.000  H 
  C20      1.0000 0.46050  0.75773  0.19700  Biso   1.000  C 
  H15      1.0000 0.54280  0.75480  0.21960  Biso   1.000  H 
  N9       1.0000 0.40520  0.80491  0.09330  Biso   1.000  N 
  C21      1.0000 0.28590  0.80700  0.06040  Biso   1.000  C 
  C22      1.0000 0.22110  0.76510  0.13160  Biso   1.000  C 
  H16      1.0000 0.13880  0.76890  0.10710  Biso   1.000  H 
  H17      1.0000 0.24500  0.83850  0.98550  Biso   1.000  H 
  C23      1.0000 0.08900  0.66970  0.28160  Biso   1.000  C 
  H18      1.0000 0.06180  0.70790  0.31940  Biso   1.000  H 
  H19      1.0000 0.05670  0.66440  0.14870  Biso   1.000  H 
  H20      1.0000 0.06300  0.63670  0.34670  Biso   1.000  H 
  C24      1.0000 0.19060  0.53310  0.95570  Biso   1.000  C 
  C25      1.0000 0.14020  0.48350  0.02030  Biso   1.000  C 
  H21      1.0000 0.13770  0.48340  0.14500  Biso   1.000  H 
  H22      1.0000 0.22270  0.56510  0.03660  Biso   1.000  H 
  N10      1.0000 0.90500  0.43594  0.08740  Biso   1.000  N 
  C26      1.0000 0.89750  0.43620  0.26610  Biso   1.000  C 
  H23      1.0000 0.92480  0.40220  0.34130  Biso   1.000  H 
  C27      1.0000 0.85140  0.48440  0.34100  Biso   1.000  C 
  H24      1.0000 0.84980  0.48330  0.46600  Biso   1.000  H 
  C28      1.0000 0.80690  0.53500  0.23120  Biso   1.000  C 
  C29      1.0000 0.75960  0.58880  0.31230  Biso   1.000  C 
  C30      1.0000 0.70770  0.64180  0.19030  Biso   1.000  C 
  H25      1.0000 0.68090  0.67220  0.26370  Biso   1.000  H 
  H26      1.0000 0.64150  0.62810  0.09050  Biso   1.000  H 
  H27      1.0000 0.76720  0.65930  0.13800  Biso   1.000  H 
  N11      1.0000 0.76950  0.58620  0.48880  Biso   1.000  N 
  N12      1.0000 0.71530  0.63280  0.56220  Biso   1.000  N 
  C31      1.0000 0.78280  0.66990  0.67330  Biso   1.000  C 
  C32      1.0000 0.71940  0.71740  0.76020  Biso   1.000  C 
  C33      1.0000 0.59630  0.71370  0.72840  Biso   1.000  C 
  C34      1.0000 0.53950  0.75773  0.80300  Biso   1.000  C 
  H28      1.0000 0.45720  0.75480  0.78040  Biso   1.000  H 
  N13      1.0000 0.59480  0.80491  0.90670  Biso   1.000  N 
  C35      1.0000 0.71410  0.80700  0.93960  Biso   1.000  C 
  C36      1.0000 0.77890  0.76510  0.86840  Biso   1.000  C 
  H29      1.0000 0.86120  0.76890  0.89290  Biso   1.000  H 
  H30      1.0000 0.75500  0.83850  0.01450  Biso   1.000  H 
  H31      1.0000 0.55360  0.68180  0.65770  Biso   1.000  H 
  C37      1.0000 0.91100  0.66970  0.71840  Biso   1.000  C 
  H32      1.0000 0.93700  0.63670  0.65330  Biso   1.000  H 
  H33      1.0000 0.94330  0.66440  0.85130  Biso   1.000  H 
  H34      1.0000 0.93820  0.70790  0.68060  Biso   1.000  H 
  C38      1.0000 0.80940  0.53310  0.04430  Biso   1.000  C 
  C39      1.0000 0.85980  0.48350  0.97970  Biso   1.000  C 
  H35      1.0000 0.86230  0.48340  0.85500  Biso   1.000  H 
  H36      1.0000 0.77730  0.56510  0.96340  Biso   1.000  H 
  N14      1.0000 0.90520  0.30491  0.09330  Biso   1.000  N 
  C40      1.0000 0.96050  0.25773  0.19700  Biso   1.000  C 
  H37      1.0000 0.04280  0.25480  0.21960  Biso   1.000  H 
  C41      1.0000 0.90370  0.21370  0.27160  Biso   1.000  C 
  H38      1.0000 0.94640  0.18180  0.34230  Biso   1.000  H 
  C42      1.0000 0.78060  0.21740  0.23980  Biso   1.000  C 
  C43      1.0000 0.72110  0.26510  0.13160  Biso   1.000  C 
  H39      1.0000 0.63880  0.26890  0.10710  Biso   1.000  H 
  C44      1.0000 0.78590  0.30700  0.06040  Biso   1.000  C 
  H40      1.0000 0.74500  0.33850  0.98550  Biso   1.000  H 
  C45      1.0000 0.71720  0.16990  0.32670  Biso   1.000  C 
  N15      1.0000 0.78470  0.13280  0.43780  Biso   1.000  N 
  N16      1.0000 0.73050  0.08620  0.51120  Biso   1.000  N 
  C46      1.0000 0.74040  0.08880  0.68770  Biso   1.000  C 
  C47      1.0000 0.79230  0.14180  0.80970  Biso   1.000  C 
  H41      1.0000 0.85850  0.12810  0.90950  Biso   1.000  H 
  H42      1.0000 0.73280  0.15930  0.86200  Biso   1.000  H 
  H43      1.0000 0.81910  0.17220  0.73630  Biso   1.000  H 
  C48      1.0000 0.69310  0.03500  0.76880  Biso   1.000  C 
  C49      1.0000 0.64860  0.98440  0.65900  Biso   1.000  C 
  H44      1.0000 0.65020  0.98330  0.53400  Biso   1.000  H 
  C50      1.0000 0.60250  0.93620  0.73390  Biso   1.000  C 
  H45      1.0000 0.57520  0.90220  0.65870  Biso   1.000  H 
  N17      1.0000 0.59500  0.93594  0.91260  Biso   1.000  N 
  C51      1.0000 0.64020  0.98350  0.02030  Biso   1.000  C 
  H46      1.0000 0.63770  0.98340  0.14500  Biso   1.000  H 
  C52      1.0000 0.69060  0.03310  0.95570  Biso   1.000  C 
  H47      1.0000 0.72270  0.06510  0.03660  Biso   1.000  H 
  C53      1.0000 0.58900  0.16970  0.28160  Biso   1.000  C 
  H48      1.0000 0.55670  0.16440  0.14870  Biso   1.000  H 
  H49      1.0000 0.56180  0.20790  0.31940  Biso   1.000  H 
  H50      1.0000 0.56300  0.13670  0.34670  Biso   1.000  H 
  O4       1.0000 0.86490  0.37540  0.68290  Biso   1.000  O 
  N18      1.0000 0.76780  0.35020  0.60600  Biso   1.000  N 
  O5       1.0000 0.69400  0.37420  0.46990  Biso   1.000  O 
  O6       1.0000 0.74500  0.29940  0.60700  Biso   1.000  O 
  H51      1.0000 0.95720  0.25480  0.78040  Biso   1.000  H 
  C54      1.0000 0.41100  0.16970  0.71840  Biso   1.000  C 
  H52      1.0000 0.43700  0.13670  0.65330  Biso   1.000  H 
  H53      1.0000 0.43820  0.20790  0.68060  Biso   1.000  H 
  H54      1.0000 0.44330  0.16440  0.85130  Biso   1.000  H 
  C55      1.0000 0.30940  0.03310  0.04430  Biso   1.000  C 
  C56      1.0000 0.35980  0.98350  0.97970  Biso   1.000  C 
  H55      1.0000 0.36230  0.98340  0.85500  Biso   1.000  H 
  H56      1.0000 0.27730  0.06510  0.96340  Biso   1.000  H 
  O7       1.0000 0.63510  0.87540  0.31710  Biso   1.000  O 
  N19      1.0000 0.73220  0.85020  0.39400  Biso   1.000  N 
  O8       1.0000 0.75500  0.79940  0.39300  Biso   1.000  O 
  O9       1.0000 0.80600  0.87420  0.53010  Biso   1.000  O 
  O10      1.0000 0.36490  0.87540  0.68290  Biso   1.000  O 
  N20      1.0000 0.26780  0.85020  0.60600  Biso   1.000  N 
  O11      1.0000 0.19400  0.87420  0.46990  Biso   1.000  O 
  O12      1.0000 0.24500  0.79940  0.60700  Biso   1.000  O 
