data_image0
_cell_length_a       23.3957
_cell_length_b       13.375
_cell_length_c       16.995
_cell_angle_alpha    90
_cell_angle_beta     97.2687
_cell_angle_gamma    90

_symmetry_space_group_name_H-M    "P 1"
_symmetry_int_tables_number       1

loop_
  _symmetry_equiv_pos_as_xyz
  'x, y, z'

loop_
  _atom_site_label
  _atom_site_occupancy
  _atom_site_fract_x
  _atom_site_fract_y
  _atom_site_fract_z
  _atom_site_thermal_displace_type
  _atom_site_B_iso_or_equiv
  _atom_site_type_symbol
  Yb1      1.0000 0.50000  0.27573  0.75000  Biso   1.000  Yb
  O1       1.0000 0.47915  0.32503  0.61797  Biso   1.000  O 
  C1       1.0000 0.46910  0.28060  0.55320  Biso   1.000  C 
  C2       1.0000 0.45791  0.17930  0.54020  Biso   1.000  C 
  H1       1.0000 0.45199  0.15413  0.48753  Biso   1.000  H 
  C3       1.0000 0.45531  0.11510  0.60350  Biso   1.000  C 
  C4       1.0000 0.43519  0.00690  0.58560  Biso   1.000  C 
  F1       1.0000 0.38113  0.99610  0.59890  Biso   1.000  F 
  F2       1.0000 0.46643  0.94181  0.63020  Biso   1.000  F 
  F3       1.0000 0.43671  0.98050  0.51056  Biso   1.000  F 
  O2       1.0000 0.46535  0.13493  0.67615  Biso   1.000  O 
  C5       1.0000 0.46840  0.34820  0.47980  Biso   1.000  C 
  F4       1.0000 0.45750  0.29960  0.41213  Biso   1.000  F 
  F5       1.0000 0.51727  0.39540  0.47988  Biso   1.000  F 
  F6       1.0000 0.42770  0.41830  0.48070  Biso   1.000  F 
  O3       1.0000 0.44110  0.41673  0.74718  Biso   1.000  O 
  C6       1.0000 0.44836  0.50890  0.74530  Biso   1.000  C 
  C7       1.0000 0.39184  0.56860  0.73590  Biso   1.000  C 
  F7       1.0000 0.39903  0.66660  0.73270  Biso   1.000  F 
  F8       1.0000 0.36192  0.55150  0.79610  Biso   1.000  F 
  F9       1.0000 0.35830  0.54190  0.67128  Biso   1.000  F 
  C8       1.0000 0.50000  0.56050  0.75000  Biso   1.000  C 
  H2       1.0000 0.50000  0.63149  0.75000  Biso   1.000  H 
  C9       1.0000 0.55164  0.50890  0.75470  Biso   1.000  C 
  C10      1.0000 0.60816  0.56860  0.76410  Biso   1.000  C 
  F10      1.0000 0.60097  0.66660  0.76730  Biso   1.000  F 
  F11      1.0000 0.63808  0.55150  0.70390  Biso   1.000  F 
  F12      1.0000 0.64170  0.54190  0.82872  Biso   1.000  F 
  O4       1.0000 0.55890  0.41673  0.75282  Biso   1.000  O 
  O5       1.0000 0.42078  0.22794  0.79982  Biso   1.000  O 
  P1       1.0000 0.35900  0.19467  0.79262  Biso   1.000  P 
  C11      1.0000 0.32351  0.20640  0.69290  Biso   1.000  C 
  C12      1.0000 0.27975  0.14360  0.66110  Biso   1.000  C 
  C13      1.0000 0.25120  0.16060  0.58550  Biso   1.000  C 
  H3       1.0000 0.22064  0.11739  0.56507  Biso   1.000  H 
  C14      1.0000 0.26615  0.23890  0.53961  Biso   1.000  C 
  C15      1.0000 0.23385  0.26110  0.46039  Biso   1.000  C 
  C16      1.0000 0.18796  0.20210  0.43020  Biso   1.000  C 
  C17      1.0000 0.15980  0.21660  0.35440  Biso   1.000  C 
  H4       1.0000 0.12892  0.17371  0.33456  Biso   1.000  H 
  C18      1.0000 0.17649  0.29360  0.30710  Biso   1.000  C 
  C19      1.0000 0.22025  0.35640  0.33890  Biso   1.000  C 
  H5       1.0000 0.23092  0.41175  0.30884  Biso   1.000  H 
  C20      1.0000 0.24880  0.33940  0.41450  Biso   1.000  C 
  H6       1.0000 0.27936  0.38261  0.43493  Biso   1.000  H 
  P2       1.0000 0.14100  0.30533  0.20738  Biso   1.000  P 
  C21      1.0000 0.18172  0.23010  0.14660  Biso   1.000  C 
  C22      1.0000 0.15380  0.18580  0.07900  Biso   1.000  C 
  H7       1.0000 0.11350  0.19511  0.06501  Biso   1.000  H 
  C23      1.0000 0.18550  0.12630  0.03060  Biso   1.000  C 
  C24      1.0000 0.24270  0.11560  0.04970  Biso   1.000  C 
  H8       1.0000 0.26389  0.07727  0.01624  Biso   1.000  H 
  C25      1.0000 0.27070  0.15890  0.11640  Biso   1.000  C 
  H9       1.0000 0.31113  0.15001  0.12915  Biso   1.000  H 
  C26      1.0000 0.24090  0.21550  0.16520  Biso   1.000  C 
  H10      1.0000 0.26076  0.24464  0.21183  Biso   1.000  H 
  H11      1.0000 0.16629  0.09418  0.98484  Biso   1.000  H 
  C27      1.0000 0.14630  0.43420  0.17943  Biso   1.000  C 
  C28      1.0000 0.10321  0.49870  0.19610  Biso   1.000  C 
  H12      1.0000 0.07108  0.47344  0.21891  Biso   1.000  H 
  C29      1.0000 0.10670  0.60010  0.17980  Biso   1.000  C 
  H13      1.0000 0.07684  0.64416  0.19088  Biso   1.000  H 
  C30      1.0000 0.15300  0.63600  0.14780  Biso   1.000  C 
  H14      1.0000 0.15549  0.70525  0.13627  Biso   1.000  H 
  C31      1.0000 0.19600  0.57280  0.13230  Biso   1.000  C 
  H15      1.0000 0.22820  0.59880  0.11022  Biso   1.000  H 
  C32      1.0000 0.19350  0.47100  0.14810  Biso   1.000  C 
  H16      1.0000 0.22375  0.42769  0.13752  Biso   1.000  H 
  O6       1.0000 0.07922  0.27206  0.20018  Biso   1.000  O 
  Yb2      1.0000 0.00000  0.22427  0.25000  Biso   1.000  Yb
  O7       1.0000 0.05890  0.08327  0.25282  Biso   1.000  O 
  C33      1.0000 0.05164  0.99110  0.25470  Biso   1.000  C 
  C34      1.0000 0.10816  0.93140  0.26410  Biso   1.000  C 
  F13      1.0000 0.10097  0.83340  0.26730  Biso   1.000  F 
  F14      1.0000 0.13808  0.94850  0.20390  Biso   1.000  F 
  F15      1.0000 0.14170  0.95810  0.32872  Biso   1.000  F 
  C35      1.0000 0.00000  0.93950  0.25000  Biso   1.000  C 
  H17      1.0000 0.00000  0.86851  0.25000  Biso   1.000  H 
  C36      1.0000 0.94836  0.99110  0.24530  Biso   1.000  C 
  C37      1.0000 0.89184  0.93140  0.23590  Biso   1.000  C 
  F16      1.0000 0.89903  0.83340  0.23270  Biso   1.000  F 
  F17      1.0000 0.86192  0.94850  0.29610  Biso   1.000  F 
  F18      1.0000 0.85830  0.95810  0.17128  Biso   1.000  F 
  O8       1.0000 0.94110  0.08327  0.24718  Biso   1.000  O 
  O9       1.0000 0.03465  0.36507  0.32385  Biso   1.000  O 
  C38      1.0000 0.04469  0.38490  0.39650  Biso   1.000  C 
  C39      1.0000 0.06481  0.49310  0.41440  Biso   1.000  C 
  F19      1.0000 0.11887  0.50390  0.40110  Biso   1.000  F 
  F20      1.0000 0.03357  0.55819  0.36980  Biso   1.000  F 
  F21      1.0000 0.06329  0.51950  0.48944  Biso   1.000  F 
  C40      1.0000 0.04209  0.32070  0.45980  Biso   1.000  C 
  H18      1.0000 0.04801  0.34587  0.51247  Biso   1.000  H 
  C41      1.0000 0.03090  0.21940  0.44680  Biso   1.000  C 
  O10      1.0000 0.02085  0.17497  0.38203  Biso   1.000  O 
  C42      1.0000 0.03160  0.15180  0.52020  Biso   1.000  C 
  F22      1.0000 0.04250  0.20040  0.58787  Biso   1.000  F 
  F23      1.0000 0.98273  0.10460  0.52012  Biso   1.000  F 
  F24      1.0000 0.07230  0.08170  0.51930  Biso   1.000  F 
  O11      1.0000 0.97915  0.17497  0.11797  Biso   1.000  O 
  C43      1.0000 0.96910  0.21940  0.05320  Biso   1.000  C 
  C44      1.0000 0.95791  0.32070  0.04020  Biso   1.000  C 
  C45      1.0000 0.95531  0.38490  0.10350  Biso   1.000  C 
  C46      1.0000 0.93519  0.49310  0.08560  Biso   1.000  C 
  F25      1.0000 0.88113  0.50390  0.09890  Biso   1.000  F 
  F26      1.0000 0.96643  0.55819  0.13020  Biso   1.000  F 
  F27      1.0000 0.93671  0.51950  0.01056  Biso   1.000  F 
  O12      1.0000 0.96535  0.36507  0.17615  Biso   1.000  O 
  H19      1.0000 0.95199  0.34587  0.98753  Biso   1.000  H 
  C47      1.0000 0.96840  0.15180  0.97980  Biso   1.000  C 
  F28      1.0000 0.01727  0.10460  0.97988  Biso   1.000  F 
  F29      1.0000 0.95750  0.20040  0.91213  Biso   1.000  F 
  F30      1.0000 0.92770  0.08170  0.98070  Biso   1.000  F 
  O13      1.0000 0.92078  0.27206  0.29982  Biso   1.000  O 
  P3       1.0000 0.85900  0.30533  0.29262  Biso   1.000  P 
  C48      1.0000 0.82351  0.29360  0.19290  Biso   1.000  C 
  C49      1.0000 0.84020  0.21660  0.14560  Biso   1.000  C 
  H20      1.0000 0.87108  0.17371  0.16544  Biso   1.000  H 
  C50      1.0000 0.81204  0.20210  0.06980  Biso   1.000  C 
  H21      1.0000 0.82463  0.15025  0.03792  Biso   1.000  H 
  C51      1.0000 0.76615  0.26110  0.03961  Biso   1.000  C 
  C52      1.0000 0.75120  0.33940  0.08550  Biso   1.000  C 
  H22      1.0000 0.72064  0.38261  0.06507  Biso   1.000  H 
  C53      1.0000 0.77975  0.35640  0.16110  Biso   1.000  C 
  H23      1.0000 0.76908  0.41175  0.19116  Biso   1.000  H 
  C54      1.0000 0.73385  0.23890  0.96039  Biso   1.000  C 
  C55      1.0000 0.74880  0.16060  0.91450  Biso   1.000  C 
  H24      1.0000 0.77936  0.11739  0.93493  Biso   1.000  H 
  C56      1.0000 0.72025  0.14360  0.83890  Biso   1.000  C 
  H25      1.0000 0.73092  0.08825  0.80884  Biso   1.000  H 
  C57      1.0000 0.67649  0.20640  0.80710  Biso   1.000  C 
  C58      1.0000 0.65980  0.28340  0.85440  Biso   1.000  C 
  H26      1.0000 0.62892  0.32629  0.83456  Biso   1.000  H 
  C59      1.0000 0.68796  0.29790  0.93020  Biso   1.000  C 
  H27      1.0000 0.67537  0.34975  0.96208  Biso   1.000  H 
  P4       1.0000 0.64100  0.19467  0.70738  Biso   1.000  P 
  C60      1.0000 0.68172  0.26990  0.64660  Biso   1.000  C 
  C61      1.0000 0.74090  0.28450  0.66520  Biso   1.000  C 
  H28      1.0000 0.76076  0.25536  0.71183  Biso   1.000  H 
  C62      1.0000 0.77070  0.34110  0.61640  Biso   1.000  C 
  H29      1.0000 0.81113  0.34999  0.62915  Biso   1.000  H 
  C63      1.0000 0.74270  0.38440  0.54970  Biso   1.000  C 
  H30      1.0000 0.76389  0.42273  0.51624  Biso   1.000  H 
  C64      1.0000 0.68550  0.37370  0.53060  Biso   1.000  C 
  C65      1.0000 0.65380  0.31420  0.57900  Biso   1.000  C 
  H31      1.0000 0.61350  0.30489  0.56501  Biso   1.000  H 
  H32      1.0000 0.66629  0.40582  0.48484  Biso   1.000  H 
  C66      1.0000 0.64630  0.06580  0.67943  Biso   1.000  C 
  C67      1.0000 0.69350  0.02900  0.64810  Biso   1.000  C 
  H33      1.0000 0.72375  0.07231  0.63752  Biso   1.000  H 
  C68      1.0000 0.69600  0.92720  0.63230  Biso   1.000  C 
  H34      1.0000 0.72820  0.90120  0.61022  Biso   1.000  H 
  C69      1.0000 0.65300  0.86400  0.64780  Biso   1.000  C 
  H35      1.0000 0.65549  0.79475  0.63627  Biso   1.000  H 
  C70      1.0000 0.60670  0.89990  0.67980  Biso   1.000  C 
  H36      1.0000 0.57684  0.85584  0.69088  Biso   1.000  H 
  C71      1.0000 0.60321  0.00130  0.69610  Biso   1.000  C 
  H37      1.0000 0.57108  0.02656  0.71891  Biso   1.000  H 
  O14      1.0000 0.57922  0.22794  0.70018  Biso   1.000  O 
  C72      1.0000 0.85370  0.43420  0.32057  Biso   1.000  C 
  C73      1.0000 0.89679  0.49870  0.30390  Biso   1.000  C 
  H38      1.0000 0.92892  0.47344  0.28109  Biso   1.000  H 
  C74      1.0000 0.89330  0.60010  0.32020  Biso   1.000  C 
  H39      1.0000 0.92316  0.64416  0.30912  Biso   1.000  H 
  C75      1.0000 0.84700  0.63600  0.35220  Biso   1.000  C 
  C76      1.0000 0.80400  0.57280  0.36770  Biso   1.000  C 
  H40      1.0000 0.77180  0.59880  0.38978  Biso   1.000  H 
  C77      1.0000 0.80650  0.47100  0.35190  Biso   1.000  C 
  H41      1.0000 0.77625  0.42769  0.36248  Biso   1.000  H 
  H42      1.0000 0.84451  0.70525  0.36373  Biso   1.000  H 
  C78      1.0000 0.81828  0.23010  0.35340  Biso   1.000  C 
  C79      1.0000 0.75910  0.21550  0.33480  Biso   1.000  C 
  H43      1.0000 0.73924  0.24464  0.28817  Biso   1.000  H 
  C80      1.0000 0.72930  0.15890  0.38360  Biso   1.000  C 
  H44      1.0000 0.68887  0.15001  0.37085  Biso   1.000  H 
  C81      1.0000 0.75730  0.11560  0.45030  Biso   1.000  C 
  H45      1.0000 0.73611  0.07727  0.48376  Biso   1.000  H 
  C82      1.0000 0.81450  0.12630  0.46940  Biso   1.000  C 
  C83      1.0000 0.84620  0.18580  0.42100  Biso   1.000  C 
  H46      1.0000 0.88650  0.19511  0.43499  Biso   1.000  H 
  H47      1.0000 0.83371  0.09418  0.51516  Biso   1.000  H 
  H48      1.0000 0.17537  0.15025  0.46208  Biso   1.000  H 
  C84      1.0000 0.31204  0.29790  0.56980  Biso   1.000  C 
  C85      1.0000 0.34020  0.28340  0.64560  Biso   1.000  C 
  H49      1.0000 0.37108  0.32629  0.66544  Biso   1.000  H 
  H50      1.0000 0.32463  0.34975  0.53792  Biso   1.000  H 
  H51      1.0000 0.26908  0.08825  0.69116  Biso   1.000  H 
  C86      1.0000 0.31828  0.26990  0.85340  Biso   1.000  C 
  C87      1.0000 0.25910  0.28450  0.83480  Biso   1.000  C 
  H52      1.0000 0.23924  0.25536  0.78817  Biso   1.000  H 
  C88      1.0000 0.22930  0.34110  0.88360  Biso   1.000  C 
  H53      1.0000 0.18887  0.34999  0.87085  Biso   1.000  H 
  C89      1.0000 0.25730  0.38440  0.95030  Biso   1.000  C 
  H54      1.0000 0.23611  0.42273  0.98376  Biso   1.000  H 
  C90      1.0000 0.31450  0.37370  0.96940  Biso   1.000  C 
  C91      1.0000 0.34620  0.31420  0.92100  Biso   1.000  C 
  H55      1.0000 0.38650  0.30489  0.93499  Biso   1.000  H 
  H56      1.0000 0.33371  0.40582  0.01516  Biso   1.000  H 
  C92      1.0000 0.35370  0.06580  0.82057  Biso   1.000  C 
  C93      1.0000 0.30650  0.02900  0.85190  Biso   1.000  C 
  H57      1.0000 0.27625  0.07231  0.86248  Biso   1.000  H 
  C94      1.0000 0.30400  0.92720  0.86770  Biso   1.000  C 
  H58      1.0000 0.27180  0.90120  0.88978  Biso   1.000  H 
  C95      1.0000 0.34700  0.86400  0.85220  Biso   1.000  C 
  H59      1.0000 0.34451  0.79475  0.86373  Biso   1.000  H 
  C96      1.0000 0.39330  0.89990  0.82020  Biso   1.000  C 
  H60      1.0000 0.42316  0.85584  0.80912  Biso   1.000  H 
  C97      1.0000 0.39679  0.00130  0.80390  Biso   1.000  C 
  H61      1.0000 0.42892  0.02656  0.78109  Biso   1.000  H 
  O15      1.0000 0.52085  0.32503  0.88203  Biso   1.000  O 
  C98      1.0000 0.53090  0.28060  0.94680  Biso   1.000  C 
  C99      1.0000 0.54209  0.17930  0.95980  Biso   1.000  C 
  H62      1.0000 0.54801  0.15413  0.01247  Biso   1.000  H 
  C100     1.0000 0.54469  0.11510  0.89650  Biso   1.000  C 
  C101     1.0000 0.56481  0.00690  0.91440  Biso   1.000  C 
  F31      1.0000 0.61887  0.99610  0.90110  Biso   1.000  F 
  F32      1.0000 0.53357  0.94181  0.86980  Biso   1.000  F 
  F33      1.0000 0.56329  0.98050  0.98944  Biso   1.000  F 
  O16      1.0000 0.53465  0.13493  0.82385  Biso   1.000  O 
  C102     1.0000 0.53160  0.34820  0.02020  Biso   1.000  C 
  F34      1.0000 0.54250  0.29960  0.08787  Biso   1.000  F 
  F35      1.0000 0.48273  0.39540  0.02012  Biso   1.000  F 
  F36      1.0000 0.57230  0.41830  0.01930  Biso   1.000  F 
