data_image0
_cell_length_a       13.149
_cell_length_b       10.5702
_cell_length_c       8.7921
_cell_angle_alpha    90
_cell_angle_beta     90
_cell_angle_gamma    90

_symmetry_space_group_name_H-M    "P 1"
_symmetry_int_tables_number       1

loop_
  _symmetry_equiv_pos_as_xyz
  'x, y, z'

loop_
  _atom_site_label
  _atom_site_occupancy
  _atom_site_fract_x
  _atom_site_fract_y
  _atom_site_fract_z
  _atom_site_thermal_displace_type
  _atom_site_B_iso_or_equiv
  _atom_site_type_symbol
  Ag1      1.0000 0.50000  0.11730  0.25000  Biso   1.000  Ag
  N1       1.0000 0.38060  0.11220  0.43200  Biso   1.000  N 
  C1       1.0000 0.33240  0.21800  0.48920  Biso   1.000  C 
  H1       1.0000 0.34535  0.31531  0.45344  Biso   1.000  H 
  C2       1.0000 0.26490  0.17870  0.59970  Biso   1.000  C 
  H2       1.0000 0.21866  0.23990  0.67144  Biso   1.000  H 
  C3       1.0000 0.26630  0.04830  0.60330  Biso   1.000  C 
  H3       1.0000 0.22104  0.98839  0.67794  Biso   1.000  H 
  N2       1.0000 0.33520  0.00700  0.49560  Biso   1.000  N 
  Ag2      1.0000 0.40746  0.83850  0.38900  Biso   1.000  Ag
  N3       1.0000 0.46760  0.66260  0.31180  Biso   1.000  N 
  C4       1.0000 0.45140  0.53850  0.35400  Biso   1.000  C 
  C5       1.0000 0.50000  0.46170  0.25000  Biso   1.000  C 
  H4       1.0000 0.50000  0.35867  0.25000  Biso   1.000  H 
  C6       1.0000 0.54860  0.53850  0.14600  Biso   1.000  C 
  H5       1.0000 0.59213  0.50673  0.04779  Biso   1.000  H 
  N4       1.0000 0.53240  0.66260  0.18820  Biso   1.000  N 
  Ag3      1.0000 0.59254  0.83850  0.11100  Biso   1.000  Ag
  Ag4      1.0000 0.50000  0.88270  0.75000  Biso   1.000  Ag
  N5       1.0000 0.38060  0.88780  0.93200  Biso   1.000  N 
  C7       1.0000 0.33240  0.78200  0.98920  Biso   1.000  C 
  H6       1.0000 0.34535  0.68469  0.95344  Biso   1.000  H 
  C8       1.0000 0.26490  0.82130  0.09970  Biso   1.000  C 
  C9       1.0000 0.26630  0.95170  0.10330  Biso   1.000  C 
  N6       1.0000 0.33520  0.99300  0.99560  Biso   1.000  N 
  Ag5      1.0000 0.40746  0.16150  0.88900  Biso   1.000  Ag
  N7       1.0000 0.46760  0.33740  0.81180  Biso   1.000  N 
  C10      1.0000 0.45140  0.46150  0.85400  Biso   1.000  C 
  H7       1.0000 0.40787  0.49327  0.95221  Biso   1.000  H 
  C11      1.0000 0.50000  0.53830  0.75000  Biso   1.000  C 
  H8       1.0000 0.50000  0.64133  0.75000  Biso   1.000  H 
  C12      1.0000 0.54860  0.46150  0.64600  Biso   1.000  C 
  H9       1.0000 0.59213  0.49327  0.54779  Biso   1.000  H 
  N8       1.0000 0.53240  0.33740  0.68820  Biso   1.000  N 
  Ag6      1.0000 0.59254  0.16150  0.61100  Biso   1.000  Ag
  N9       1.0000 0.66480  0.99300  0.50440  Biso   1.000  N 
  C13      1.0000 0.73370  0.95170  0.39670  Biso   1.000  C 
  C14      1.0000 0.73510  0.82130  0.40030  Biso   1.000  C 
  H10      1.0000 0.78134  0.76010  0.32856  Biso   1.000  H 
  C15      1.0000 0.66760  0.78200  0.51080  Biso   1.000  C 
  H11      1.0000 0.65465  0.68469  0.54656  Biso   1.000  H 
  N10      1.0000 0.61940  0.88780  0.56800  Biso   1.000  N 
  H12      1.0000 0.77897  0.01161  0.32206  Biso   1.000  H 
  H13      1.0000 0.22104  0.01161  0.17794  Biso   1.000  H 
  H14      1.0000 0.21866  0.76010  0.17144  Biso   1.000  H 
  N11      1.0000 0.66480  0.00700  0.00440  Biso   1.000  N 
  C16      1.0000 0.73370  0.04830  0.89670  Biso   1.000  C 
  H15      1.0000 0.77897  0.98839  0.82206  Biso   1.000  H 
  C17      1.0000 0.73510  0.17870  0.90030  Biso   1.000  C 
  H16      1.0000 0.78134  0.23990  0.82856  Biso   1.000  H 
  C18      1.0000 0.66760  0.21800  0.01080  Biso   1.000  C 
  H17      1.0000 0.65465  0.31531  0.04656  Biso   1.000  H 
  N12      1.0000 0.61940  0.11220  0.06800  Biso   1.000  N 
  H18      1.0000 0.40787  0.50673  0.45221  Biso   1.000  H 
