data_image0
_cell_length_a       7.0649
_cell_length_b       7.0649
_cell_length_c       19.775
_cell_angle_alpha    90
_cell_angle_beta     90
_cell_angle_gamma    90

_symmetry_space_group_name_H-M    "P 1"
_symmetry_int_tables_number       1

loop_
  _symmetry_equiv_pos_as_xyz
  'x, y, z'

loop_
  _atom_site_label
  _atom_site_occupancy
  _atom_site_fract_x
  _atom_site_fract_y
  _atom_site_fract_z
  _atom_site_thermal_displace_type
  _atom_site_B_iso_or_equiv
  _atom_site_type_symbol
  Zn1      1.0000 0.00000  0.00000  0.27846  Biso   1.000  Zn
  N1       1.0000 0.00000  0.00000  0.17640  Biso   1.000  N 
  C1       1.0000 0.11330  0.11330  0.14400  Biso   1.000  C 
  C2       1.0000 0.23590  0.23590  0.18890  Biso   1.000  C 
  O1       1.0000 0.34720  0.34720  0.16060  Biso   1.000  O 
  Zn2      1.0000 0.50000  0.50000  0.22154  Biso   1.000  Zn
  O2       1.0000 0.65280  0.65280  0.16060  Biso   1.000  O 
  C3       1.0000 0.76410  0.76410  0.18890  Biso   1.000  C 
  O3       1.0000 0.78490  0.78490  0.25070  Biso   1.000  O 
  C4       1.0000 0.88670  0.88670  0.14400  Biso   1.000  C 
  C5       1.0000 0.88160  0.88160  0.07350  Biso   1.000  C 
  H1       1.0000 0.79980  0.79980  0.05100  Biso   1.000  H 
  C6       1.0000 0.00000  0.00000  0.03760  Biso   1.000  C 
  C7       1.0000 0.11840  0.11840  0.07350  Biso   1.000  C 
  H2       1.0000 0.20020  0.20020  0.05100  Biso   1.000  H 
  C8       1.0000 0.00000  0.00000  0.96240  Biso   1.000  C 
  C9       1.0000 0.11840  0.11840  0.92650  Biso   1.000  C 
  C10      1.0000 0.11330  0.11330  0.85600  Biso   1.000  C 
  C11      1.0000 0.23590  0.23590  0.81110  Biso   1.000  C 
  O4       1.0000 0.21510  0.21510  0.74930  Biso   1.000  O 
  Zn3      1.0000 0.00000  0.00000  0.72154  Biso   1.000  Zn
  N2       1.0000 0.00000  0.00000  0.82360  Biso   1.000  N 
  C12      1.0000 0.88670  0.88670  0.85600  Biso   1.000  C 
  C13      1.0000 0.76410  0.76410  0.81110  Biso   1.000  C 
  O5       1.0000 0.78490  0.78490  0.74930  Biso   1.000  O 
  O6       1.0000 0.65280  0.65280  0.83940  Biso   1.000  O 
  Zn4      1.0000 0.50000  0.50000  0.77846  Biso   1.000  Zn
  N3       1.0000 0.50000  0.50000  0.67640  Biso   1.000  N 
  C14      1.0000 0.38670  0.61330  0.64400  Biso   1.000  C 
  C15      1.0000 0.26410  0.73590  0.68890  Biso   1.000  C 
  O7       1.0000 0.15280  0.84720  0.66060  Biso   1.000  O 
  O8       1.0000 0.28490  0.71510  0.75070  Biso   1.000  O 
  C16      1.0000 0.38160  0.61840  0.57350  Biso   1.000  C 
  H3       1.0000 0.29980  0.70020  0.55100  Biso   1.000  H 
  C17      1.0000 0.50000  0.50000  0.53760  Biso   1.000  C 
  C18      1.0000 0.50000  0.50000  0.46240  Biso   1.000  C 
  C19      1.0000 0.38160  0.61840  0.42650  Biso   1.000  C 
  H4       1.0000 0.29980  0.70020  0.44900  Biso   1.000  H 
  C20      1.0000 0.38670  0.61330  0.35600  Biso   1.000  C 
  N4       1.0000 0.50000  0.50000  0.32360  Biso   1.000  N 
  C21      1.0000 0.61330  0.38670  0.35600  Biso   1.000  C 
  C22      1.0000 0.73590  0.26410  0.31110  Biso   1.000  C 
  O9       1.0000 0.71510  0.28490  0.24930  Biso   1.000  O 
  O10      1.0000 0.84720  0.15280  0.33940  Biso   1.000  O 
  C23      1.0000 0.61840  0.38160  0.42650  Biso   1.000  C 
  H5       1.0000 0.70020  0.29980  0.44900  Biso   1.000  H 
  C24      1.0000 0.26410  0.73590  0.31110  Biso   1.000  C 
  O11      1.0000 0.28490  0.71510  0.24930  Biso   1.000  O 
  O12      1.0000 0.15280  0.84720  0.33940  Biso   1.000  O 
  C25      1.0000 0.61840  0.38160  0.57350  Biso   1.000  C 
  H6       1.0000 0.70020  0.29980  0.55100  Biso   1.000  H 
  C26      1.0000 0.61330  0.38670  0.64400  Biso   1.000  C 
  C27      1.0000 0.73590  0.26410  0.68890  Biso   1.000  C 
  O13      1.0000 0.84720  0.15280  0.66060  Biso   1.000  O 
  O14      1.0000 0.71510  0.28490  0.75070  Biso   1.000  O 
  O15      1.0000 0.34720  0.34720  0.83940  Biso   1.000  O 
  C28      1.0000 0.88160  0.88160  0.92650  Biso   1.000  C 
  H7       1.0000 0.79980  0.79980  0.94900  Biso   1.000  H 
  H8       1.0000 0.20020  0.20020  0.94900  Biso   1.000  H 
  O16      1.0000 0.21510  0.21510  0.25070  Biso   1.000  O 
