data_image0
_cell_length_a       17.564
_cell_length_b       13.3531
_cell_length_c       15.632
_cell_angle_alpha    90
_cell_angle_beta     105.162
_cell_angle_gamma    90

_symmetry_space_group_name_H-M    "P 1"
_symmetry_int_tables_number       1

loop_
  _symmetry_equiv_pos_as_xyz
  'x, y, z'

loop_
  _atom_site_label
  _atom_site_occupancy
  _atom_site_fract_x
  _atom_site_fract_y
  _atom_site_fract_z
  _atom_site_thermal_displace_type
  _atom_site_B_iso_or_equiv
  _atom_site_type_symbol
  Cd1      1.0000 0.00000  0.30123  0.25000  Biso   1.000  Cd
  N1       1.0000 0.07442  0.18690  0.19273  Biso   1.000  N 
  C1       1.0000 0.15119  0.20792  0.20376  Biso   1.000  C 
  H1       1.0000 0.17210  0.26520  0.23800  Biso   1.000  H 
  C2       1.0000 0.20215  0.15134  0.16834  Biso   1.000  C 
  Si1      1.0000 0.30984  0.18264  0.19031  Biso   1.000  Si
  C3       1.0000 0.33269  0.31167  0.23661  Biso   1.000  C 
  C4       1.0000 0.29373  0.39382  0.17560  Biso   1.000  C 
  H2       1.0000 0.23830  0.40090  0.16620  Biso   1.000  H 
  C5       1.0000 0.32809  0.45635  0.13424  Biso   1.000  C 
  H3       1.0000 0.38340  0.45240  0.14140  Biso   1.000  H 
  H4       1.0000 0.29790  0.50610  0.09680  Biso   1.000  H 
  H5       1.0000 0.31610  0.31670  0.29230  Biso   1.000  H 
  H6       1.0000 0.39050  0.32180  0.25160  Biso   1.000  H 
  C6       1.0000 0.34190  0.16746  0.08561  Biso   1.000  C 
  H7       1.0000 0.31270  0.21600  0.04110  Biso   1.000  H 
  H8       1.0000 0.32770  0.09930  0.06180  Biso   1.000  H 
  C7       1.0000 0.42878  0.18296  0.09834  Biso   1.000  C 
  C8       1.0000 0.46138  0.25756  0.06767  Biso   1.000  C 
  H9       1.0000 0.42940  0.30850  0.03380  Biso   1.000  H 
  H10      1.0000 0.51720  0.26110  0.07910  Biso   1.000  H 
  H11      1.0000 0.46310  0.13390  0.13180  Biso   1.000  H 
  C9       1.0000 0.36214  0.08818  0.27412  Biso   1.000  C 
  C10      1.0000 0.36442  0.09526  0.36416  Biso   1.000  C 
  H12      1.0000 0.34100  0.15100  0.38520  Biso   1.000  H 
  C11      1.0000 0.40084  0.02106  0.42234  Biso   1.000  C 
  H13      1.0000 0.40240  0.02520  0.48340  Biso   1.000  H 
  C12      1.0000 0.43494  0.94096  0.39047  Biso   1.000  C 
  H14      1.0000 0.46030  0.89050  0.43080  Biso   1.000  H 
  N2       1.0000 0.43355  0.93172  0.30458  Biso   1.000  N 
  C13      1.0000 0.39737  0.00379  0.24887  Biso   1.000  C 
  H15      1.0000 0.39570  0.99670  0.18790  Biso   1.000  H 
  Cd2      1.0000 0.50000  0.80123  0.25000  Biso   1.000  Cd
  N3       1.0000 0.42558  0.68690  0.30727  Biso   1.000  N 
  C14      1.0000 0.34881  0.70792  0.29624  Biso   1.000  C 
  H16      1.0000 0.32790  0.76520  0.26200  Biso   1.000  H 
  C15      1.0000 0.29785  0.65134  0.33166  Biso   1.000  C 
  Si2      1.0000 0.19016  0.68264  0.30969  Biso   1.000  Si
  C16      1.0000 0.13786  0.58818  0.22588  Biso   1.000  C 
  C17      1.0000 0.13558  0.59526  0.13584  Biso   1.000  C 
  H17      1.0000 0.15900  0.65100  0.11480  Biso   1.000  H 
  C18      1.0000 0.09916  0.52106  0.07766  Biso   1.000  C 
  C19      1.0000 0.06506  0.44096  0.10953  Biso   1.000  C 
  H18      1.0000 0.03970  0.39050  0.06920  Biso   1.000  H 
  N4       1.0000 0.06645  0.43172  0.19542  Biso   1.000  N 
  C20      1.0000 0.10263  0.50379  0.25113  Biso   1.000  C 
  H19      1.0000 0.10430  0.49670  0.31210  Biso   1.000  H 
  H20      1.0000 0.09760  0.52520  0.01660  Biso   1.000  H 
  C21      1.0000 0.16731  0.81167  0.26339  Biso   1.000  C 
  H21      1.0000 0.10950  0.82180  0.24840  Biso   1.000  H 
  H22      1.0000 0.18390  0.81670  0.20770  Biso   1.000  H 
  C22      1.0000 0.20627  0.89382  0.32440  Biso   1.000  C 
  C23      1.0000 0.17191  0.95635  0.36576  Biso   1.000  C 
  H23      1.0000 0.11660  0.95240  0.35860  Biso   1.000  H 
  H24      1.0000 0.20210  0.00610  0.40320  Biso   1.000  H 
  H25      1.0000 0.26170  0.90090  0.33380  Biso   1.000  H 
  C24      1.0000 0.15810  0.66746  0.41439  Biso   1.000  C 
  H26      1.0000 0.18730  0.71600  0.45890  Biso   1.000  H 
  H27      1.0000 0.17230  0.59930  0.43820  Biso   1.000  H 
  C25      1.0000 0.07122  0.68296  0.40166  Biso   1.000  C 
  C26      1.0000 0.03862  0.75756  0.43233  Biso   1.000  C 
  H28      1.0000 0.07060  0.80850  0.46620  Biso   1.000  H 
  H29      1.0000 0.98280  0.76110  0.42090  Biso   1.000  H 
  H30      1.0000 0.03690  0.63390  0.36820  Biso   1.000  H 
  C27      1.0000 0.32982  0.56572  0.37849  Biso   1.000  C 
  H31      1.0000 0.29750  0.52330  0.40290  Biso   1.000  H 
  C28      1.0000 0.40875  0.54220  0.38953  Biso   1.000  C 
  H32      1.0000 0.43080  0.48360  0.42090  Biso   1.000  H 
  C29      1.0000 0.45475  0.60543  0.35410  Biso   1.000  C 
  H33      1.0000 0.50920  0.59050  0.36340  Biso   1.000  H 
  Cl1      1.0000 0.39085  0.80309  0.09964  Biso   1.000  Cl
  N5       1.0000 0.57442  0.68690  0.19273  Biso   1.000  N 
  C30      1.0000 0.54525  0.60543  0.14590  Biso   1.000  C 
  C31      1.0000 0.59125  0.54220  0.11047  Biso   1.000  C 
  H34      1.0000 0.56920  0.48360  0.07910  Biso   1.000  H 
  C32      1.0000 0.67018  0.56572  0.12151  Biso   1.000  C 
  H35      1.0000 0.70250  0.52330  0.09710  Biso   1.000  H 
  C33      1.0000 0.70215  0.65134  0.16834  Biso   1.000  C 
  C34      1.0000 0.65119  0.70792  0.20376  Biso   1.000  C 
  H36      1.0000 0.67210  0.76520  0.23800  Biso   1.000  H 
  Si3      1.0000 0.80984  0.68264  0.19031  Biso   1.000  Si
  C35      1.0000 0.84190  0.66746  0.08561  Biso   1.000  C 
  H37      1.0000 0.82770  0.59930  0.06180  Biso   1.000  H 
  C36      1.0000 0.92878  0.68296  0.09834  Biso   1.000  C 
  H38      1.0000 0.96310  0.63390  0.13180  Biso   1.000  H 
  C37      1.0000 0.96138  0.75756  0.06767  Biso   1.000  C 
  H39      1.0000 0.92940  0.80850  0.03380  Biso   1.000  H 
  H40      1.0000 0.01720  0.76110  0.07910  Biso   1.000  H 
  H41      1.0000 0.81270  0.71600  0.04110  Biso   1.000  H 
  C38      1.0000 0.86214  0.58818  0.27412  Biso   1.000  C 
  C39      1.0000 0.86442  0.59526  0.36416  Biso   1.000  C 
  H42      1.0000 0.84100  0.65100  0.38520  Biso   1.000  H 
  C40      1.0000 0.90084  0.52106  0.42234  Biso   1.000  C 
  C41      1.0000 0.93494  0.44096  0.39047  Biso   1.000  C 
  H43      1.0000 0.96030  0.39050  0.43080  Biso   1.000  H 
  N6       1.0000 0.93355  0.43172  0.30458  Biso   1.000  N 
  C42      1.0000 0.89737  0.50379  0.24887  Biso   1.000  C 
  H44      1.0000 0.89570  0.49670  0.18790  Biso   1.000  H 
  H45      1.0000 0.90240  0.52520  0.48340  Biso   1.000  H 
  C43      1.0000 0.83269  0.81167  0.23661  Biso   1.000  C 
  H46      1.0000 0.81610  0.81670  0.29230  Biso   1.000  H 
  H47      1.0000 0.89050  0.82180  0.25160  Biso   1.000  H 
  C44      1.0000 0.79373  0.89382  0.17560  Biso   1.000  C 
  H48      1.0000 0.73830  0.90090  0.16620  Biso   1.000  H 
  C45      1.0000 0.82809  0.95635  0.13424  Biso   1.000  C 
  H49      1.0000 0.88340  0.95240  0.14140  Biso   1.000  H 
  H50      1.0000 0.79790  0.00610  0.09680  Biso   1.000  H 
  H51      1.0000 0.49080  0.59050  0.13660  Biso   1.000  H 
  Cl2      1.0000 0.60915  0.80309  0.40036  Biso   1.000  Cl
  N7       1.0000 0.56645  0.93172  0.19542  Biso   1.000  N 
  C46      1.0000 0.56506  0.94096  0.10953  Biso   1.000  C 
  H52      1.0000 0.53970  0.89050  0.06920  Biso   1.000  H 
  C47      1.0000 0.59916  0.02106  0.07766  Biso   1.000  C 
  H53      1.0000 0.59760  0.02520  0.01660  Biso   1.000  H 
  C48      1.0000 0.63558  0.09526  0.13584  Biso   1.000  C 
  H54      1.0000 0.65900  0.15100  0.11480  Biso   1.000  H 
  C49      1.0000 0.63786  0.08818  0.22588  Biso   1.000  C 
  Si4      1.0000 0.69016  0.18264  0.30969  Biso   1.000  Si
  C50      1.0000 0.66731  0.31167  0.26339  Biso   1.000  C 
  H55      1.0000 0.60950  0.32180  0.24840  Biso   1.000  H 
  H56      1.0000 0.68390  0.31670  0.20770  Biso   1.000  H 
  C51      1.0000 0.70627  0.39382  0.32440  Biso   1.000  C 
  C52      1.0000 0.67191  0.45635  0.36576  Biso   1.000  C 
  H57      1.0000 0.61660  0.45240  0.35860  Biso   1.000  H 
  H58      1.0000 0.70210  0.50610  0.40320  Biso   1.000  H 
  H59      1.0000 0.76170  0.40090  0.33380  Biso   1.000  H 
  C53      1.0000 0.65810  0.16746  0.41439  Biso   1.000  C 
  C54      1.0000 0.57122  0.18296  0.40166  Biso   1.000  C 
  H60      1.0000 0.53690  0.13390  0.36820  Biso   1.000  H 
  C55      1.0000 0.53862  0.25756  0.43233  Biso   1.000  C 
  H61      1.0000 0.48280  0.26110  0.42090  Biso   1.000  H 
  H62      1.0000 0.57060  0.30850  0.46620  Biso   1.000  H 
  H63      1.0000 0.67230  0.09930  0.43820  Biso   1.000  H 
  H64      1.0000 0.68730  0.21600  0.45890  Biso   1.000  H 
  C56      1.0000 0.79785  0.15134  0.33166  Biso   1.000  C 
  C57      1.0000 0.84881  0.20792  0.29624  Biso   1.000  C 
  H65      1.0000 0.82790  0.26520  0.26200  Biso   1.000  H 
  N8       1.0000 0.92558  0.18690  0.30727  Biso   1.000  N 
  C58      1.0000 0.95475  0.10543  0.35410  Biso   1.000  C 
  C59      1.0000 0.90875  0.04220  0.38953  Biso   1.000  C 
  C60      1.0000 0.82982  0.06572  0.37849  Biso   1.000  C 
  H66      1.0000 0.79750  0.02330  0.40290  Biso   1.000  H 
  H67      1.0000 0.93080  0.98360  0.42090  Biso   1.000  H 
  H68      1.0000 0.00920  0.09050  0.36340  Biso   1.000  H 
  C61      1.0000 0.60263  0.00379  0.25113  Biso   1.000  C 
  H69      1.0000 0.60430  0.99670  0.31210  Biso   1.000  H 
  C62      1.0000 0.17018  0.06572  0.12151  Biso   1.000  C 
  H70      1.0000 0.20250  0.02330  0.09710  Biso   1.000  H 
  C63      1.0000 0.09125  0.04220  0.11047  Biso   1.000  C 
  C64      1.0000 0.04525  0.10543  0.14590  Biso   1.000  C 
  H71      1.0000 0.99080  0.09050  0.13660  Biso   1.000  H 
  H72      1.0000 0.06920  0.98360  0.07910  Biso   1.000  H 
  Cl3      1.0000 0.10915  0.30309  0.40036  Biso   1.000  Cl
  Cl4      1.0000 0.89085  0.30309  0.09964  Biso   1.000  Cl
