data_image0
_cell_length_a       17.8459
_cell_length_b       9.171
_cell_length_c       26.0876
_cell_angle_alpha    90
_cell_angle_beta     103.06
_cell_angle_gamma    90

_symmetry_space_group_name_H-M    "P 1"
_symmetry_int_tables_number       1

loop_
  _symmetry_equiv_pos_as_xyz
  'x, y, z'

loop_
  _atom_site_label
  _atom_site_occupancy
  _atom_site_fract_x
  _atom_site_fract_y
  _atom_site_fract_z
  _atom_site_thermal_displace_type
  _atom_site_B_iso_or_equiv
  _atom_site_type_symbol
  Cd1      1.0000 0.81857  0.32289  0.63972  Biso   1.000  Cd
  Cd2      1.0000 0.68143  0.32289  0.36028  Biso   1.000  Cd
  Cd3      1.0000 0.31857  0.82289  0.13972  Biso   1.000  Cd
  Cd4      1.0000 0.18143  0.82289  0.86028  Biso   1.000  Cd
  Cd5      1.0000 0.18143  0.67711  0.36028  Biso   1.000  Cd
  Cd6      1.0000 0.31857  0.67711  0.63972  Biso   1.000  Cd
  Cd7      1.0000 0.68143  0.17711  0.86028  Biso   1.000  Cd
  Cd8      1.0000 0.81857  0.17711  0.13972  Biso   1.000  Cd
  Cd9      1.0000 0.75000  0.24241  0.50000  Biso   1.000  Cd
  Cd10     1.0000 0.25000  0.74241  0.00000  Biso   1.000  Cd
  Cd11     1.0000 0.25000  0.75759  0.50000  Biso   1.000  Cd
  Cd12     1.0000 0.75000  0.25759  0.00000  Biso   1.000  Cd
  O1       1.0000 0.71087  0.23110  0.66251  Biso   1.000  O 
  O2       1.0000 0.78913  0.23110  0.33749  Biso   1.000  O 
  O3       1.0000 0.21087  0.73110  0.16251  Biso   1.000  O 
  O4       1.0000 0.28913  0.73110  0.83749  Biso   1.000  O 
  O5       1.0000 0.28913  0.76890  0.33749  Biso   1.000  O 
  O6       1.0000 0.21087  0.76890  0.66251  Biso   1.000  O 
  O7       1.0000 0.78913  0.26890  0.83749  Biso   1.000  O 
  O8       1.0000 0.71087  0.26890  0.16251  Biso   1.000  O 
  O9       1.0000 0.69491  0.27550  0.57740  Biso   1.000  O 
  O10      1.0000 0.80509  0.27550  0.42260  Biso   1.000  O 
  O11      1.0000 0.19491  0.77550  0.07740  Biso   1.000  O 
  O12      1.0000 0.30509  0.77550  0.92260  Biso   1.000  O 
  O13      1.0000 0.30509  0.72450  0.42260  Biso   1.000  O 
  O14      1.0000 0.19491  0.72450  0.57740  Biso   1.000  O 
  O15      1.0000 0.80509  0.22450  0.92260  Biso   1.000  O 
  O16      1.0000 0.69491  0.22450  0.07740  Biso   1.000  O 
  C1       1.0000 0.67063  0.22664  0.61620  Biso   1.000  C 
  C2       1.0000 0.82937  0.22664  0.38380  Biso   1.000  C 
  C3       1.0000 0.17063  0.72664  0.11620  Biso   1.000  C 
  C4       1.0000 0.32937  0.72664  0.88380  Biso   1.000  C 
  C5       1.0000 0.32937  0.77336  0.38380  Biso   1.000  C 
  C6       1.0000 0.17063  0.77336  0.61620  Biso   1.000  C 
  C7       1.0000 0.82937  0.27336  0.88380  Biso   1.000  C 
  C8       1.0000 0.67063  0.27336  0.11620  Biso   1.000  C 
  C9       1.0000 0.59190  0.16051  0.60698  Biso   1.000  C 
  C10      1.0000 0.90810  0.16051  0.39302  Biso   1.000  C 
  C11      1.0000 0.09190  0.66051  0.10698  Biso   1.000  C 
  C12      1.0000 0.40810  0.66051  0.89302  Biso   1.000  C 
  C13      1.0000 0.40810  0.83949  0.39302  Biso   1.000  C 
  C14      1.0000 0.09190  0.83949  0.60698  Biso   1.000  C 
  C15      1.0000 0.90810  0.33949  0.89302  Biso   1.000  C 
  C16      1.0000 0.59190  0.33949  0.10698  Biso   1.000  C 
  C17      1.0000 0.54380  0.16180  0.55714  Biso   1.000  C 
  C18      1.0000 0.95620  0.16180  0.44286  Biso   1.000  C 
  C19      1.0000 0.04380  0.66180  0.05714  Biso   1.000  C 
  C20      1.0000 0.45620  0.66180  0.94286  Biso   1.000  C 
  C21      1.0000 0.45620  0.83820  0.44286  Biso   1.000  C 
  C22      1.0000 0.04380  0.83820  0.55714  Biso   1.000  C 
  C23      1.0000 0.95620  0.33820  0.94286  Biso   1.000  C 
  C24      1.0000 0.54380  0.33820  0.05714  Biso   1.000  C 
  H1       1.0000 0.56000  0.20880  0.52900  Biso   1.000  H 
  H2       1.0000 0.94000  0.20880  0.47100  Biso   1.000  H 
  H3       1.0000 0.06000  0.70880  0.02900  Biso   1.000  H 
  H4       1.0000 0.44000  0.70880  0.97100  Biso   1.000  H 
  H5       1.0000 0.44000  0.79120  0.47100  Biso   1.000  H 
  H6       1.0000 0.06000  0.79120  0.52900  Biso   1.000  H 
  H7       1.0000 0.94000  0.29120  0.97100  Biso   1.000  H 
  H8       1.0000 0.56000  0.29120  0.02900  Biso   1.000  H 
  C25      1.0000 0.47224  0.09510  0.54803  Biso   1.000  C 
  C26      1.0000 0.02776  0.09510  0.45197  Biso   1.000  C 
  C27      1.0000 0.97224  0.59510  0.04803  Biso   1.000  C 
  C28      1.0000 0.52776  0.59510  0.95197  Biso   1.000  C 
  C29      1.0000 0.52776  0.90490  0.45197  Biso   1.000  C 
  C30      1.0000 0.97224  0.90490  0.54803  Biso   1.000  C 
  C31      1.0000 0.02776  0.40490  0.95197  Biso   1.000  C 
  C32      1.0000 0.47224  0.40490  0.04803  Biso   1.000  C 
  H9       1.0000 0.43950  0.09690  0.51380  Biso   1.000  H 
  H10      1.0000 0.06050  0.09690  0.48620  Biso   1.000  H 
  H11      1.0000 0.93950  0.59690  0.01380  Biso   1.000  H 
  H12      1.0000 0.56050  0.59690  0.98620  Biso   1.000  H 
  H13      1.0000 0.56050  0.90310  0.48620  Biso   1.000  H 
  H14      1.0000 0.93950  0.90310  0.51380  Biso   1.000  H 
  H15      1.0000 0.06050  0.40310  0.98620  Biso   1.000  H 
  H16      1.0000 0.43950  0.40310  0.01380  Biso   1.000  H 
  C33      1.0000 0.44839  0.02570  0.58875  Biso   1.000  C 
  C34      1.0000 0.05161  0.02570  0.41125  Biso   1.000  C 
  C35      1.0000 0.94839  0.52570  0.08875  Biso   1.000  C 
  C36      1.0000 0.55161  0.52570  0.91125  Biso   1.000  C 
  C37      1.0000 0.55161  0.97430  0.41125  Biso   1.000  C 
  C38      1.0000 0.94839  0.97430  0.58875  Biso   1.000  C 
  C39      1.0000 0.05161  0.47430  0.91125  Biso   1.000  C 
  C40      1.0000 0.44839  0.47430  0.08875  Biso   1.000  C 
  C41      1.0000 0.49590  0.02570  0.63899  Biso   1.000  C 
  C42      1.0000 0.00410  0.02570  0.36101  Biso   1.000  C 
  C43      1.0000 0.99590  0.52570  0.13899  Biso   1.000  C 
  C44      1.0000 0.50410  0.52570  0.86101  Biso   1.000  C 
  C45      1.0000 0.50410  0.97430  0.36101  Biso   1.000  C 
  C46      1.0000 0.99590  0.97430  0.63899  Biso   1.000  C 
  C47      1.0000 0.00410  0.47430  0.86101  Biso   1.000  C 
  C48      1.0000 0.49590  0.47430  0.13899  Biso   1.000  C 
  H17      1.0000 0.47940  0.97980  0.66720  Biso   1.000  H 
  H18      1.0000 0.02060  0.97980  0.33280  Biso   1.000  H 
  H19      1.0000 0.97940  0.47980  0.16720  Biso   1.000  H 
  H20      1.0000 0.52060  0.47980  0.83280  Biso   1.000  H 
  H21      1.0000 0.52060  0.02020  0.33280  Biso   1.000  H 
  H22      1.0000 0.97940  0.02020  0.66720  Biso   1.000  H 
  H23      1.0000 0.02060  0.52020  0.83280  Biso   1.000  H 
  H24      1.0000 0.47940  0.52020  0.16720  Biso   1.000  H 
  C49      1.0000 0.56740  0.09260  0.64802  Biso   1.000  C 
  C50      1.0000 0.93260  0.09260  0.35198  Biso   1.000  C 
  C51      1.0000 0.06740  0.59260  0.14802  Biso   1.000  C 
  C52      1.0000 0.43260  0.59260  0.85198  Biso   1.000  C 
  C53      1.0000 0.43260  0.90740  0.35198  Biso   1.000  C 
  C54      1.0000 0.06740  0.90740  0.64802  Biso   1.000  C 
  C55      1.0000 0.93260  0.40740  0.85198  Biso   1.000  C 
  C56      1.0000 0.56740  0.40740  0.14802  Biso   1.000  C 
  H25      1.0000 0.59980  0.09210  0.68240  Biso   1.000  H 
  H26      1.0000 0.90020  0.09210  0.31760  Biso   1.000  H 
  H27      1.0000 0.09980  0.59210  0.18240  Biso   1.000  H 
  H28      1.0000 0.40020  0.59210  0.81760  Biso   1.000  H 
  H29      1.0000 0.40020  0.90790  0.31760  Biso   1.000  H 
  H30      1.0000 0.09980  0.90790  0.68240  Biso   1.000  H 
  H31      1.0000 0.90020  0.40790  0.81760  Biso   1.000  H 
  H32      1.0000 0.59980  0.40790  0.18240  Biso   1.000  H 
  C57      1.0000 0.37301  0.94430  0.57841  Biso   1.000  C 
  C58      1.0000 0.12699  0.94430  0.42159  Biso   1.000  C 
  C59      1.0000 0.87301  0.44430  0.07841  Biso   1.000  C 
  C60      1.0000 0.62699  0.44430  0.92159  Biso   1.000  C 
  C61      1.0000 0.62699  0.05570  0.42159  Biso   1.000  C 
  C62      1.0000 0.87301  0.05570  0.57841  Biso   1.000  C 
  C63      1.0000 0.12699  0.55570  0.92159  Biso   1.000  C 
  C64      1.0000 0.37301  0.55570  0.07841  Biso   1.000  C 
  O17      1.0000 0.34251  0.91651  0.53074  Biso   1.000  O 
  O18      1.0000 0.15749  0.91651  0.46926  Biso   1.000  O 
  O19      1.0000 0.84251  0.41651  0.03074  Biso   1.000  O 
  O20      1.0000 0.65749  0.41651  0.96926  Biso   1.000  O 
  O21      1.0000 0.65749  0.08349  0.46926  Biso   1.000  O 
  O22      1.0000 0.84251  0.08349  0.53074  Biso   1.000  O 
  O23      1.0000 0.15749  0.58349  0.96926  Biso   1.000  O 
  O24      1.0000 0.34251  0.58349  0.03074  Biso   1.000  O 
  O25      1.0000 0.34630  0.90948  0.61723  Biso   1.000  O 
  O26      1.0000 0.15370  0.90948  0.38277  Biso   1.000  O 
  O27      1.0000 0.84630  0.40948  0.11723  Biso   1.000  O 
  O28      1.0000 0.65370  0.40948  0.88277  Biso   1.000  O 
  O29      1.0000 0.65370  0.09052  0.38277  Biso   1.000  O 
  O30      1.0000 0.84630  0.09052  0.61723  Biso   1.000  O 
  O31      1.0000 0.15370  0.59052  0.88277  Biso   1.000  O 
  O32      1.0000 0.34630  0.59052  0.11723  Biso   1.000  O 
  O33      1.0000 0.92763  0.38141  0.61282  Biso   1.000  O 
  O34      1.0000 0.57237  0.38141  0.38718  Biso   1.000  O 
  O35      1.0000 0.42763  0.88141  0.11282  Biso   1.000  O 
  O36      1.0000 0.07237  0.88141  0.88718  Biso   1.000  O 
  O37      1.0000 0.07237  0.61859  0.38718  Biso   1.000  O 
  O38      1.0000 0.42763  0.61859  0.61282  Biso   1.000  O 
  O39      1.0000 0.57237  0.11859  0.88718  Biso   1.000  O 
  O40      1.0000 0.92763  0.11859  0.11282  Biso   1.000  O 
  O41      1.0000 0.82610  0.41860  0.54728  Biso   1.000  O 
  O42      1.0000 0.67390  0.41860  0.45272  Biso   1.000  O 
  O43      1.0000 0.32610  0.91860  0.04728  Biso   1.000  O 
  O44      1.0000 0.17390  0.91860  0.95272  Biso   1.000  O 
  O45      1.0000 0.17390  0.58140  0.45272  Biso   1.000  O 
  O46      1.0000 0.32610  0.58140  0.54728  Biso   1.000  O 
  O47      1.0000 0.67390  0.08140  0.95272  Biso   1.000  O 
  O48      1.0000 0.82610  0.08140  0.04728  Biso   1.000  O 
  C65      1.0000 0.89851  0.41650  0.56614  Biso   1.000  C 
  C66      1.0000 0.60149  0.41650  0.43386  Biso   1.000  C 
  C67      1.0000 0.39851  0.91650  0.06614  Biso   1.000  C 
  C68      1.0000 0.10149  0.91650  0.93386  Biso   1.000  C 
  C69      1.0000 0.10149  0.58350  0.43386  Biso   1.000  C 
  C70      1.0000 0.39851  0.58350  0.56614  Biso   1.000  C 
  C71      1.0000 0.60149  0.08350  0.93386  Biso   1.000  C 
  C72      1.0000 0.89851  0.08350  0.06614  Biso   1.000  C 
  C73      1.0000 0.95104  0.45907  0.53171  Biso   1.000  C 
  C74      1.0000 0.54896  0.45907  0.46829  Biso   1.000  C 
  C75      1.0000 0.45104  0.95907  0.03171  Biso   1.000  C 
  C76      1.0000 0.04896  0.95907  0.96829  Biso   1.000  C 
  C77      1.0000 0.04896  0.54093  0.46829  Biso   1.000  C 
  C78      1.0000 0.45104  0.54093  0.53171  Biso   1.000  C 
  C79      1.0000 0.54896  0.04093  0.96829  Biso   1.000  C 
  C80      1.0000 0.95104  0.04093  0.03171  Biso   1.000  C 
  C81      1.0000 0.02863  0.42280  0.54600  Biso   1.000  C 
  C82      1.0000 0.47137  0.42280  0.45400  Biso   1.000  C 
  C83      1.0000 0.52863  0.92280  0.04600  Biso   1.000  C 
  C84      1.0000 0.97137  0.92280  0.95400  Biso   1.000  C 
  C85      1.0000 0.97137  0.57720  0.45400  Biso   1.000  C 
  C86      1.0000 0.52863  0.57720  0.54600  Biso   1.000  C 
  C87      1.0000 0.47137  0.07720  0.95400  Biso   1.000  C 
  C88      1.0000 0.02863  0.07720  0.04600  Biso   1.000  C 
  H33      1.0000 0.04800  0.36960  0.57750  Biso   1.000  H 
  H34      1.0000 0.45200  0.36960  0.42250  Biso   1.000  H 
  H35      1.0000 0.54800  0.86960  0.07750  Biso   1.000  H 
  H36      1.0000 0.95200  0.86960  0.92250  Biso   1.000  H 
  H37      1.0000 0.95200  0.63040  0.42250  Biso   1.000  H 
  H38      1.0000 0.54800  0.63040  0.57750  Biso   1.000  H 
  H39      1.0000 0.45200  0.13040  0.92250  Biso   1.000  H 
  H40      1.0000 0.04800  0.13040  0.07750  Biso   1.000  H 
  C89      1.0000 0.92259  0.53590  0.48551  Biso   1.000  C 
  C90      1.0000 0.57741  0.53590  0.51449  Biso   1.000  C 
  C91      1.0000 0.42259  0.03590  0.98551  Biso   1.000  C 
  C92      1.0000 0.07741  0.03590  0.01449  Biso   1.000  C 
  C93      1.0000 0.07741  0.46410  0.51449  Biso   1.000  C 
  C94      1.0000 0.42259  0.46410  0.48551  Biso   1.000  C 
  C95      1.0000 0.57741  0.96410  0.01449  Biso   1.000  C 
  C96      1.0000 0.92259  0.96410  0.98551  Biso   1.000  C 
  H41      1.0000 0.86950  0.56000  0.47560  Biso   1.000  H 
  H42      1.0000 0.63050  0.56000  0.52440  Biso   1.000  H 
  H43      1.0000 0.36950  0.06000  0.97560  Biso   1.000  H 
  H44      1.0000 0.13050  0.06000  0.02440  Biso   1.000  H 
  H45      1.0000 0.13050  0.44000  0.52440  Biso   1.000  H 
  H46      1.0000 0.36950  0.44000  0.47560  Biso   1.000  H 
  H47      1.0000 0.63050  0.94000  0.02440  Biso   1.000  H 
  H48      1.0000 0.86950  0.94000  0.97560  Biso   1.000  H 
  O49      1.0000 0.89258  0.27763  0.72058  Biso   1.000  O 
  O50      1.0000 0.60742  0.27763  0.27942  Biso   1.000  O 
  O51      1.0000 0.39258  0.77763  0.22058  Biso   1.000  O 
  O52      1.0000 0.10742  0.77763  0.77942  Biso   1.000  O 
  O53      1.0000 0.10742  0.72237  0.27942  Biso   1.000  O 
  O54      1.0000 0.39258  0.72237  0.72058  Biso   1.000  O 
  O55      1.0000 0.60742  0.22237  0.77942  Biso   1.000  O 
  O56      1.0000 0.89258  0.22237  0.22058  Biso   1.000  O 
  C97      1.0000 0.87493  0.17340  0.74613  Biso   1.000  C 
  C98      1.0000 0.62507  0.17340  0.25387  Biso   1.000  C 
  C99      1.0000 0.37493  0.67340  0.24613  Biso   1.000  C 
  C100     1.0000 0.12507  0.67340  0.75387  Biso   1.000  C 
  C101     1.0000 0.12507  0.82660  0.25387  Biso   1.000  C 
  C102     1.0000 0.37493  0.82660  0.74613  Biso   1.000  C 
  C103     1.0000 0.62507  0.32660  0.75387  Biso   1.000  C 
  C104     1.0000 0.87493  0.32660  0.24613  Biso   1.000  C 
  H49      1.0000 0.82190  0.15130  0.74190  Biso   1.000  H 
  H50      1.0000 0.67810  0.15130  0.25810  Biso   1.000  H 
  H51      1.0000 0.32190  0.65130  0.24190  Biso   1.000  H 
  H52      1.0000 0.17810  0.65130  0.75810  Biso   1.000  H 
  H53      1.0000 0.17810  0.84870  0.25810  Biso   1.000  H 
  H54      1.0000 0.32190  0.84870  0.74190  Biso   1.000  H 
  H55      1.0000 0.67810  0.34870  0.75810  Biso   1.000  H 
  H56      1.0000 0.82190  0.34870  0.24190  Biso   1.000  H 
  N1       1.0000 0.92489  0.09204  0.77864  Biso   1.000  N 
  N2       1.0000 0.57511  0.09204  0.22136  Biso   1.000  N 
  N3       1.0000 0.42489  0.59204  0.27864  Biso   1.000  N 
  N4       1.0000 0.07511  0.59204  0.72136  Biso   1.000  N 
  N5       1.0000 0.07511  0.90796  0.22136  Biso   1.000  N 
  N6       1.0000 0.42489  0.90796  0.77864  Biso   1.000  N 
  N7       1.0000 0.57511  0.40796  0.72136  Biso   1.000  N 
  N8       1.0000 0.92489  0.40796  0.27864  Biso   1.000  N 
  C105     1.0000 0.00756  0.11700  0.78753  Biso   1.000  C 
  C106     1.0000 0.49244  0.11700  0.21247  Biso   1.000  C 
  C107     1.0000 0.50756  0.61700  0.28753  Biso   1.000  C 
  C108     1.0000 0.99244  0.61700  0.71247  Biso   1.000  C 
  C109     1.0000 0.99244  0.88300  0.21247  Biso   1.000  C 
  C110     1.0000 0.50756  0.88300  0.78753  Biso   1.000  C 
  C111     1.0000 0.49244  0.38300  0.71247  Biso   1.000  C 
  C112     1.0000 0.00756  0.38300  0.28753  Biso   1.000  C 
  H57      1.0000 0.03330  0.02600  0.78180  Biso   1.000  H 
  H58      1.0000 0.46670  0.02600  0.21820  Biso   1.000  H 
  H59      1.0000 0.53330  0.52600  0.28180  Biso   1.000  H 
  H60      1.0000 0.96670  0.52600  0.71820  Biso   1.000  H 
  H61      1.0000 0.96670  0.97400  0.21820  Biso   1.000  H 
  H62      1.0000 0.53330  0.97400  0.78180  Biso   1.000  H 
  H63      1.0000 0.46670  0.47400  0.71820  Biso   1.000  H 
  H64      1.0000 0.03330  0.47400  0.28180  Biso   1.000  H 
  H65      1.0000 0.02740  0.15030  0.82380  Biso   1.000  H 
  H66      1.0000 0.47260  0.15030  0.17620  Biso   1.000  H 
  H67      1.0000 0.52740  0.65030  0.32380  Biso   1.000  H 
  H68      1.0000 0.97260  0.65030  0.67620  Biso   1.000  H 
  H69      1.0000 0.97260  0.84970  0.17620  Biso   1.000  H 
  H70      1.0000 0.52740  0.84970  0.82380  Biso   1.000  H 
  H71      1.0000 0.47260  0.34970  0.67620  Biso   1.000  H 
  H72      1.0000 0.02740  0.34970  0.32380  Biso   1.000  H 
  H73      1.0000 0.01760  0.19150  0.76300  Biso   1.000  H 
  H74      1.0000 0.48240  0.19150  0.23700  Biso   1.000  H 
  H75      1.0000 0.51760  0.69150  0.26300  Biso   1.000  H 
  H76      1.0000 0.98240  0.69150  0.73700  Biso   1.000  H 
  H77      1.0000 0.98240  0.80850  0.23700  Biso   1.000  H 
  H78      1.0000 0.51760  0.80850  0.76300  Biso   1.000  H 
  H79      1.0000 0.48240  0.30850  0.73700  Biso   1.000  H 
  H80      1.0000 0.01760  0.30850  0.26300  Biso   1.000  H 
  C113     1.0000 0.89917  0.97960  0.81017  Biso   1.000  C 
  C114     1.0000 0.60083  0.97960  0.18983  Biso   1.000  C 
  C115     1.0000 0.39917  0.47960  0.31017  Biso   1.000  C 
  C116     1.0000 0.10083  0.47960  0.68983  Biso   1.000  C 
  C117     1.0000 0.10083  0.02040  0.18983  Biso   1.000  C 
  C118     1.0000 0.39917  0.02040  0.81017  Biso   1.000  C 
  C119     1.0000 0.60083  0.52040  0.68983  Biso   1.000  C 
  C120     1.0000 0.89917  0.52040  0.31017  Biso   1.000  C 
  H81      1.0000 0.92300  0.88630  0.80470  Biso   1.000  H 
  H82      1.0000 0.57700  0.88630  0.19530  Biso   1.000  H 
  H83      1.0000 0.42300  0.38630  0.30470  Biso   1.000  H 
  H84      1.0000 0.07700  0.38630  0.69530  Biso   1.000  H 
  H85      1.0000 0.07700  0.11370  0.19530  Biso   1.000  H 
  H86      1.0000 0.42300  0.11370  0.80470  Biso   1.000  H 
  H87      1.0000 0.57700  0.61370  0.69530  Biso   1.000  H 
  H88      1.0000 0.92300  0.61370  0.30470  Biso   1.000  H 
  H89      1.0000 0.84310  0.97050  0.79960  Biso   1.000  H 
  H90      1.0000 0.65690  0.97050  0.20040  Biso   1.000  H 
  H91      1.0000 0.34310  0.47050  0.29960  Biso   1.000  H 
  H92      1.0000 0.15690  0.47050  0.70040  Biso   1.000  H 
  H93      1.0000 0.15690  0.02950  0.20040  Biso   1.000  H 
  H94      1.0000 0.34310  0.02950  0.79960  Biso   1.000  H 
  H95      1.0000 0.65690  0.52950  0.70040  Biso   1.000  H 
  H96      1.0000 0.84310  0.52950  0.29960  Biso   1.000  H 
  H97      1.0000 0.91410  0.00640  0.84750  Biso   1.000  H 
  H98      1.0000 0.58590  0.00640  0.15250  Biso   1.000  H 
  H99      1.0000 0.41410  0.50640  0.34750  Biso   1.000  H 
  H100     1.0000 0.08590  0.50640  0.65250  Biso   1.000  H 
  H101     1.0000 0.08590  0.99360  0.15250  Biso   1.000  H 
  H102     1.0000 0.41410  0.99360  0.84750  Biso   1.000  H 
  H103     1.0000 0.58590  0.49360  0.65250  Biso   1.000  H 
  H104     1.0000 0.91410  0.49360  0.34750  Biso   1.000  H 
  O57      1.0000 0.79121  0.55961  0.65617  Biso   1.000  O 
  O58      1.0000 0.70879  0.55961  0.34383  Biso   1.000  O 
  O59      1.0000 0.29121  0.05961  0.15617  Biso   1.000  O 
  O60      1.0000 0.20879  0.05961  0.84383  Biso   1.000  O 
  O61      1.0000 0.20879  0.44039  0.34383  Biso   1.000  O 
  O62      1.0000 0.29121  0.44039  0.65617  Biso   1.000  O 
  O63      1.0000 0.70879  0.94039  0.84383  Biso   1.000  O 
  O64      1.0000 0.79121  0.94039  0.15617  Biso   1.000  O 
  C121     1.0000 0.76115  0.63900  0.61853  Biso   1.000  C 
  C122     1.0000 0.73885  0.63900  0.38147  Biso   1.000  C 
  C123     1.0000 0.26115  0.13900  0.11853  Biso   1.000  C 
  C124     1.0000 0.23885  0.13900  0.88147  Biso   1.000  C 
  C125     1.0000 0.23885  0.36100  0.38147  Biso   1.000  C 
  C126     1.0000 0.26115  0.36100  0.61853  Biso   1.000  C 
  C127     1.0000 0.73885  0.86100  0.88147  Biso   1.000  C 
  C128     1.0000 0.76115  0.86100  0.11853  Biso   1.000  C 
  H105     1.0000 0.75570  0.60030  0.58410  Biso   1.000  H 
  H106     1.0000 0.74430  0.60030  0.41590  Biso   1.000  H 
  H107     1.0000 0.25570  0.10030  0.08410  Biso   1.000  H 
  H108     1.0000 0.24430  0.10030  0.91590  Biso   1.000  H 
  H109     1.0000 0.24430  0.39970  0.41590  Biso   1.000  H 
  H110     1.0000 0.25570  0.39970  0.58410  Biso   1.000  H 
  H111     1.0000 0.74430  0.89970  0.91590  Biso   1.000  H 
  H112     1.0000 0.75570  0.89970  0.08410  Biso   1.000  H 
  N9       1.0000 0.73626  0.77254  0.62270  Biso   1.000  N 
  N10      1.0000 0.76374  0.77254  0.37730  Biso   1.000  N 
  N11      1.0000 0.23626  0.27254  0.12270  Biso   1.000  N 
  N12      1.0000 0.26374  0.27254  0.87730  Biso   1.000  N 
  N13      1.0000 0.26374  0.22746  0.37730  Biso   1.000  N 
  N14      1.0000 0.23626  0.22746  0.62270  Biso   1.000  N 
  N15      1.0000 0.76374  0.72746  0.87730  Biso   1.000  N 
  N16      1.0000 0.73626  0.72746  0.12270  Biso   1.000  N 
  C129     1.0000 0.74394  0.84070  0.67395  Biso   1.000  C 
  C130     1.0000 0.75606  0.84070  0.32605  Biso   1.000  C 
  C131     1.0000 0.24394  0.34070  0.17395  Biso   1.000  C 
  C132     1.0000 0.25606  0.34070  0.82605  Biso   1.000  C 
  C133     1.0000 0.25606  0.15930  0.32605  Biso   1.000  C 
  C134     1.0000 0.24394  0.15930  0.67395  Biso   1.000  C 
  C135     1.0000 0.75606  0.65930  0.82605  Biso   1.000  C 
  C136     1.0000 0.74394  0.65930  0.17395  Biso   1.000  C 
  H113     1.0000 0.76870  0.93610  0.67400  Biso   1.000  H 
  H114     1.0000 0.73130  0.93610  0.32600  Biso   1.000  H 
  H115     1.0000 0.26870  0.43610  0.17400  Biso   1.000  H 
  H116     1.0000 0.23130  0.43610  0.82600  Biso   1.000  H 
  H117     1.0000 0.23130  0.06390  0.32600  Biso   1.000  H 
  H118     1.0000 0.26870  0.06390  0.67400  Biso   1.000  H 
  H119     1.0000 0.73130  0.56390  0.82600  Biso   1.000  H 
  H120     1.0000 0.76870  0.56390  0.17400  Biso   1.000  H 
  H121     1.0000 0.77540  0.77870  0.70110  Biso   1.000  H 
  H122     1.0000 0.72460  0.77870  0.29890  Biso   1.000  H 
  H123     1.0000 0.27540  0.27870  0.20110  Biso   1.000  H 
  H124     1.0000 0.22460  0.27870  0.79890  Biso   1.000  H 
  H125     1.0000 0.22460  0.22130  0.29890  Biso   1.000  H 
  H126     1.0000 0.27540  0.22130  0.70110  Biso   1.000  H 
  H127     1.0000 0.72460  0.72130  0.79890  Biso   1.000  H 
  H128     1.0000 0.77540  0.72130  0.20110  Biso   1.000  H 
  H129     1.0000 0.69290  0.85340  0.68130  Biso   1.000  H 
  H130     1.0000 0.80710  0.85340  0.31870  Biso   1.000  H 
  H131     1.0000 0.19290  0.35340  0.18130  Biso   1.000  H 
  H132     1.0000 0.30710  0.35340  0.81870  Biso   1.000  H 
  H133     1.0000 0.30710  0.14660  0.31870  Biso   1.000  H 
  H134     1.0000 0.19290  0.14660  0.68130  Biso   1.000  H 
  H135     1.0000 0.80710  0.64660  0.81870  Biso   1.000  H 
  H136     1.0000 0.69290  0.64660  0.18130  Biso   1.000  H 
  C137     1.0000 0.69904  0.85750  0.57676  Biso   1.000  C 
  C138     1.0000 0.80096  0.85750  0.42324  Biso   1.000  C 
  C139     1.0000 0.19904  0.35750  0.07676  Biso   1.000  C 
  C140     1.0000 0.30096  0.35750  0.92324  Biso   1.000  C 
  C141     1.0000 0.30096  0.14250  0.42324  Biso   1.000  C 
  C142     1.0000 0.19904  0.14250  0.57676  Biso   1.000  C 
  C143     1.0000 0.80096  0.64250  0.92324  Biso   1.000  C 
  C144     1.0000 0.69904  0.64250  0.07676  Biso   1.000  C 
  H137     1.0000 0.72500  0.95180  0.57730  Biso   1.000  H 
  H138     1.0000 0.77500  0.95180  0.42270  Biso   1.000  H 
  H139     1.0000 0.22500  0.45180  0.07730  Biso   1.000  H 
  H140     1.0000 0.27500  0.45180  0.92270  Biso   1.000  H 
  H141     1.0000 0.27500  0.04820  0.42270  Biso   1.000  H 
  H142     1.0000 0.22500  0.04820  0.57730  Biso   1.000  H 
  H143     1.0000 0.77500  0.54820  0.92270  Biso   1.000  H 
  H144     1.0000 0.72500  0.54820  0.07730  Biso   1.000  H 
  H145     1.0000 0.64490  0.87330  0.57740  Biso   1.000  H 
  H146     1.0000 0.85510  0.87330  0.42260  Biso   1.000  H 
  H147     1.0000 0.14490  0.37330  0.07740  Biso   1.000  H 
  H148     1.0000 0.35510  0.37330  0.92260  Biso   1.000  H 
  H149     1.0000 0.35510  0.12670  0.42260  Biso   1.000  H 
  H150     1.0000 0.14490  0.12670  0.57740  Biso   1.000  H 
  H151     1.0000 0.85510  0.62670  0.92260  Biso   1.000  H 
  H152     1.0000 0.64490  0.62670  0.07740  Biso   1.000  H 
  H153     1.0000 0.70220  0.80440  0.54470  Biso   1.000  H 
  H154     1.0000 0.79780  0.80440  0.45530  Biso   1.000  H 
  H155     1.0000 0.20220  0.30440  0.04470  Biso   1.000  H 
  H156     1.0000 0.29780  0.30440  0.95530  Biso   1.000  H 
  H157     1.0000 0.29780  0.19560  0.45530  Biso   1.000  H 
  H158     1.0000 0.20220  0.19560  0.54470  Biso   1.000  H 
  H159     1.0000 0.79780  0.69560  0.95530  Biso   1.000  H 
  H160     1.0000 0.70220  0.69560  0.04470  Biso   1.000  H 
