data_image0
_cell_length_a       10.0509
_cell_length_b       10.0509
_cell_length_c       12.312
_cell_angle_alpha    90
_cell_angle_beta     90
_cell_angle_gamma    90

_symmetry_space_group_name_H-M    "P 1"
_symmetry_int_tables_number       1

loop_
  _symmetry_equiv_pos_as_xyz
  'x, y, z'

loop_
  _atom_site_label
  _atom_site_occupancy
  _atom_site_fract_x
  _atom_site_fract_y
  _atom_site_fract_z
  _atom_site_thermal_displace_type
  _atom_site_B_iso_or_equiv
  _atom_site_type_symbol
  Cu1      1.0000 0.63856  0.48136  0.42148  Biso   1.000  Cu
  S1       1.0000 0.57277  0.26902  0.41725  Biso   1.000  S 
  C1       1.0000 0.43470  0.26610  0.33220  Biso   1.000  C 
  N1       1.0000 0.40420  0.15650  0.27070  Biso   1.000  N 
  C2       1.0000 0.28460  0.18730  0.21950  Biso   1.000  C 
  C3       1.0000 0.20320  0.11670  0.15100  Biso   1.000  C 
  H1       1.0000 0.22990  0.01656  0.12521  Biso   1.000  H 
  C4       1.0000 0.08660  0.17530  0.11540  Biso   1.000  C 
  C5       1.0000 0.05350  0.30760  0.14670  Biso   1.000  C 
  C6       1.0000 0.13360  0.37860  0.21520  Biso   1.000  C 
  H2       1.0000 0.10727  0.47938  0.23954  Biso   1.000  H 
  C7       1.0000 0.24970  0.31890  0.25310  Biso   1.000  C 
  N2       1.0000 0.34780  0.36600  0.32270  Biso   1.000  N 
  Cu2      1.0000 0.36144  0.51864  0.42148  Biso   1.000  Cu
  S2       1.0000 0.42723  0.73098  0.41725  Biso   1.000  S 
  C8       1.0000 0.56530  0.73390  0.33220  Biso   1.000  C 
  N3       1.0000 0.59580  0.84350  0.27070  Biso   1.000  N 
  C9       1.0000 0.71540  0.81270  0.21950  Biso   1.000  C 
  C10      1.0000 0.75030  0.68110  0.25310  Biso   1.000  C 
  C11      1.0000 0.86640  0.62140  0.21520  Biso   1.000  C 
  C12      1.0000 0.94650  0.69240  0.14670  Biso   1.000  C 
  H3       1.0000 0.03717  0.64700  0.11554  Biso   1.000  H 
  C13      1.0000 0.91340  0.82470  0.11540  Biso   1.000  C 
  H4       1.0000 0.98058  0.88030  0.06290  Biso   1.000  H 
  C14      1.0000 0.79680  0.88330  0.15100  Biso   1.000  C 
  H5       1.0000 0.77010  0.98344  0.12521  Biso   1.000  H 
  H6       1.0000 0.89273  0.52062  0.23954  Biso   1.000  H 
  N4       1.0000 0.65220  0.63400  0.32270  Biso   1.000  N 
  Cu3      1.0000 0.50000  0.00000  0.27120  Biso   1.000  Cu
  Cu4      1.0000 0.51864  0.63856  0.57852  Biso   1.000  Cu
  N5       1.0000 0.36600  0.65220  0.67730  Biso   1.000  N 
  C15      1.0000 0.26610  0.56530  0.66780  Biso   1.000  C 
  S3       1.0000 0.26902  0.42723  0.58275  Biso   1.000  S 
  Cu5      1.0000 0.48136  0.36144  0.57852  Biso   1.000  Cu
  N6       1.0000 0.63400  0.34780  0.67730  Biso   1.000  N 
  C16      1.0000 0.73390  0.43470  0.66780  Biso   1.000  C 
  S4       1.0000 0.73098  0.57277  0.58275  Biso   1.000  S 
  N7       1.0000 0.84350  0.40420  0.72930  Biso   1.000  N 
  C17      1.0000 0.81270  0.28460  0.78050  Biso   1.000  C 
  C18      1.0000 0.68110  0.24970  0.74690  Biso   1.000  C 
  C19      1.0000 0.62140  0.13360  0.78480  Biso   1.000  C 
  H7       1.0000 0.52062  0.10727  0.76046  Biso   1.000  H 
  C20      1.0000 0.69240  0.05350  0.85330  Biso   1.000  C 
  C21      1.0000 0.82470  0.08660  0.88460  Biso   1.000  C 
  H8       1.0000 0.88030  0.01942  0.93710  Biso   1.000  H 
  C22      1.0000 0.88330  0.20320  0.84900  Biso   1.000  C 
  H9       1.0000 0.98344  0.22990  0.87479  Biso   1.000  H 
  H10      1.0000 0.64700  0.96283  0.88446  Biso   1.000  H 
  Cu6      1.0000 0.00000  0.50000  0.72880  Biso   1.000  Cu
  N8       1.0000 0.15650  0.59580  0.72930  Biso   1.000  N 
  C23      1.0000 0.18730  0.71540  0.78050  Biso   1.000  C 
  C24      1.0000 0.31890  0.75030  0.74690  Biso   1.000  C 
  C25      1.0000 0.37860  0.86640  0.78480  Biso   1.000  C 
  H11      1.0000 0.47938  0.89273  0.76046  Biso   1.000  H 
  C26      1.0000 0.30760  0.94650  0.85330  Biso   1.000  C 
  H12      1.0000 0.35300  0.03717  0.88446  Biso   1.000  H 
  C27      1.0000 0.17530  0.91340  0.88460  Biso   1.000  C 
  H13      1.0000 0.11970  0.98058  0.93710  Biso   1.000  H 
  C28      1.0000 0.11670  0.79680  0.84900  Biso   1.000  C 
  H14      1.0000 0.01656  0.77010  0.87479  Biso   1.000  H 
  H15      1.0000 0.96283  0.35300  0.11554  Biso   1.000  H 
  H16      1.0000 0.01942  0.11970  0.06290  Biso   1.000  H 
