data_image0
_cell_length_a       9.7487
_cell_length_b       11.2395
_cell_length_c       20.1631
_cell_angle_alpha    93.161
_cell_angle_beta     98.342
_cell_angle_gamma    110.662

_symmetry_space_group_name_H-M    "P 1"
_symmetry_int_tables_number       1

loop_
  _symmetry_equiv_pos_as_xyz
  'x, y, z'

loop_
  _atom_site_label
  _atom_site_occupancy
  _atom_site_fract_x
  _atom_site_fract_y
  _atom_site_fract_z
  _atom_site_thermal_displace_type
  _atom_site_B_iso_or_equiv
  _atom_site_type_symbol
  Nd1      1.0000 0.21393  0.22128  0.24600  Biso   1.000  Nd
  N1       1.0000 0.13722  0.26911  0.12011  Biso   1.000  N 
  C1       1.0000 0.01938  0.18033  0.07794  Biso   1.000  C 
  C2       1.0000 0.95910  0.20803  0.01502  Biso   1.000  C 
  C3       1.0000 0.02460  0.33160  0.99657  Biso   1.000  C 
  C4       1.0000 0.14360  0.41913  0.03849  Biso   1.000  C 
  H1       1.0000 0.18980  0.50280  0.02650  Biso   1.000  H 
  C5       1.0000 0.19710  0.38384  0.09987  Biso   1.000  C 
  H2       1.0000 0.28090  0.44560  0.12860  Biso   1.000  H 
  H3       1.0000 0.98600  0.35370  0.95500  Biso   1.000  H 
  C6       1.0000 0.83620  0.11080  0.97235  Biso   1.000  C 
  H4       1.0000 0.79560  0.12940  0.93020  Biso   1.000  H 
  C7       1.0000 0.77750  0.99290  0.99136  Biso   1.000  C 
  H5       1.0000 0.69540  0.92980  0.96240  Biso   1.000  H 
  C8       1.0000 0.83629  0.96024  0.05460  Biso   1.000  C 
  C9       1.0000 0.77920  0.83794  0.07498  Biso   1.000  C 
  H6       1.0000 0.69670  0.77280  0.04730  Biso   1.000  H 
  C10      1.0000 0.84260  0.81270  0.13479  Biso   1.000  C 
  C11      1.0000 0.96323  0.91120  0.17494  Biso   1.000  C 
  H7       1.0000 0.00710  0.89230  0.21630  Biso   1.000  H 
  N2       1.0000 0.01935  0.02923  0.15832  Biso   1.000  N 
  C12      1.0000 0.95723  0.05433  0.09813  Biso   1.000  C 
  H8       1.0000 0.80570  0.72980  0.14900  Biso   1.000  H 
  N3       1.0000 0.30770  0.02875  0.23799  Biso   1.000  N 
  C13      1.0000 0.34565  0.94298  0.24200  Biso   1.000  C 
  Mo1      1.0000 0.41975  0.78296  0.25055  Biso   1.000  Mo
  C14      1.0000 0.43482  0.72663  0.14839  Biso   1.000  C 
  N4       1.0000 0.43948  0.69278  0.09407  Biso   1.000  N 
  C15      1.0000 0.19631  0.70252  0.19383  Biso   1.000  C 
  N5       1.0000 0.07613  0.65428  0.16516  Biso   1.000  N 
  C16      1.0000 0.60006  0.94194  0.22492  Biso   1.000  C 
  N6       1.0000 0.69480  0.02835  0.21285  Biso   1.000  N 
  C17      1.0000 0.34876  0.57856  0.25510  Biso   1.000  C 
  N7       1.0000 0.30652  0.46911  0.25381  Biso   1.000  N 
  C18      1.0000 0.61350  0.73118  0.27057  Biso   1.000  C 
  N8       1.0000 0.71560  0.70296  0.28297  Biso   1.000  N 
  C19      1.0000 0.26927  0.74363  0.32216  Biso   1.000  C 
  N9       1.0000 0.18698  0.71773  0.35917  Biso   1.000  N 
  C20      1.0000 0.54250  0.88925  0.34606  Biso   1.000  C 
  N10      1.0000 0.61230  0.94442  0.39645  Biso   1.000  N 
  O1       1.0000 0.09812  0.06898  0.31810  Biso   1.000  O 
  C21      1.0000 0.01440  0.99690  0.35111  Biso   1.000  C 
  N11      1.0000 0.06860  0.95856  0.40664  Biso   1.000  N 
  C22      1.0000 0.23300  0.99700  0.43200  Biso   1.000  C 
  H9       1.0000 0.25550  0.92080  0.44200  Biso   1.000  H 
  H10      1.0000 0.28850  0.03800  0.39740  Biso   1.000  H 
  H11      1.0000 0.26200  0.05710  0.47310  Biso   1.000  H 
  C23      1.0000 0.97000  0.86060  0.44043  Biso   1.000  C 
  H12      1.0000 0.98980  0.88900  0.48890  Biso   1.000  H 
  H13      1.0000 0.86620  0.84630  0.42180  Biso   1.000  H 
  H14      1.0000 0.98780  0.78070  0.43340  Biso   1.000  H 
  H15      1.0000 0.90970  0.96830  0.33660  Biso   1.000  H 
  N12      1.0000 0.20474  0.33422  0.36541  Biso   1.000  N 
  C24      1.0000 0.30326  0.33429  0.42062  Biso   1.000  C 
  C25      1.0000 0.42935  0.30081  0.41024  Biso   1.000  C 
  C26      1.0000 0.53389  0.30242  0.46687  Biso   1.000  C 
  C27      1.0000 0.65710  0.27156  0.45542  Biso   1.000  C 
  H16      1.0000 0.72930  0.27050  0.49230  Biso   1.000  H 
  C28      1.0000 0.67180  0.24318  0.39078  Biso   1.000  C 
  C29      1.0000 0.56253  0.24329  0.33732  Biso   1.000  C 
  H17      1.0000 0.57440  0.22340  0.29260  Biso   1.000  H 
  N13      1.0000 0.44302  0.26982  0.34584  Biso   1.000  N 
  H18      1.0000 0.75520  0.22360  0.38210  Biso   1.000  H 
  C30      1.0000 0.51300  0.33556  0.53340  Biso   1.000  C 
  C31      1.0000 0.39590  0.36719  0.54319  Biso   1.000  C 
  H19      1.0000 0.38410  0.38830  0.58780  Biso   1.000  H 
  C32      1.0000 0.28890  0.36923  0.48691  Biso   1.000  C 
  C33      1.0000 0.17000  0.40903  0.49509  Biso   1.000  C 
  H20      1.0000 0.15610  0.43250  0.53890  Biso   1.000  H 
  C34      1.0000 0.07520  0.41350  0.43927  Biso   1.000  C 
  C35      1.0000 0.09628  0.37493  0.37539  Biso   1.000  C 
  H21      1.0000 0.02900  0.37810  0.33700  Biso   1.000  H 
  H22      1.0000 0.99590  0.44230  0.44360  Biso   1.000  H 
  H23      1.0000 0.58320  0.33520  0.57130  Biso   1.000  H 
  O2       1.0000 0.42765  0.28604  0.18966  Biso   1.000  O 
  C36      1.0000 0.49931  0.24157  0.15569  Biso   1.000  C 
  H24      1.0000 0.49780  0.15810  0.16220  Biso   1.000  H 
  N14      1.0000 0.57669  0.30214  0.11152  Biso   1.000  N 
  C37      1.0000 0.66230  0.24480  0.07594  Biso   1.000  C 
  H25      1.0000 0.63400  0.24390  0.02720  Biso   1.000  H 
  H26      1.0000 0.76880  0.29510  0.08990  Biso   1.000  H 
  H27      1.0000 0.64150  0.15690  0.08680  Biso   1.000  H 
  C38      1.0000 0.59190  0.43240  0.10025  Biso   1.000  C 
  H28      1.0000 0.53780  0.43240  0.05530  Biso   1.000  H 
  H29      1.0000 0.55080  0.46790  0.13450  Biso   1.000  H 
  H30      1.0000 0.69750  0.48490  0.10330  Biso   1.000  H 
  O3       1.0000 0.96767  0.23698  0.23243  Biso   1.000  O 
  H31      1.0000 0.88230  0.16430  0.22760  Biso   1.000  H 
  H32      1.0000 0.94600  0.31000  0.22400  Biso   1.000  H 
