data_image0
_cell_length_a       11.1865
_cell_length_b       20.8154
_cell_length_c       20.0352
_cell_angle_alpha    90
_cell_angle_beta     104.864
_cell_angle_gamma    90

_symmetry_space_group_name_H-M    "P 1"
_symmetry_int_tables_number       1

loop_
  _symmetry_equiv_pos_as_xyz
  'x, y, z'

loop_
  _atom_site_label
  _atom_site_occupancy
  _atom_site_fract_x
  _atom_site_fract_y
  _atom_site_fract_z
  _atom_site_thermal_displace_type
  _atom_site_B_iso_or_equiv
  _atom_site_type_symbol
  W1       1.0000 0.03563  0.73378  0.52849  Biso   1.000  W 
  C1       1.0000 0.14660  0.77307  0.46437  Biso   1.000  C 
  N1       1.0000 0.20040  0.79428  0.42808  Biso   1.000  N 
  Nd1      1.0000 0.27061  0.83160  0.32097  Biso   1.000  Nd
  O1       1.0000 0.22480  0.71385  0.31132  Biso   1.000  O 
  C2       1.0000 0.14180  0.67990  0.27560  Biso   1.000  C 
  H1       1.0000 0.08430  0.70060  0.23860  Biso   1.000  H 
  N2       1.0000 0.12540  0.61893  0.28350  Biso   1.000  N 
  C3       1.0000 0.02410  0.58350  0.24030  Biso   1.000  C 
  H2       1.0000 0.05610  0.54540  0.22200  Biso   1.000  H 
  H3       1.0000 0.98000  0.61070  0.20200  Biso   1.000  H 
  H4       1.0000 0.96730  0.57010  0.26770  Biso   1.000  H 
  C4       1.0000 0.19560  0.58720  0.34640  Biso   1.000  C 
  H5       1.0000 0.26790  0.56580  0.33740  Biso   1.000  H 
  H6       1.0000 0.14310  0.55520  0.36100  Biso   1.000  H 
  H7       1.0000 0.22290  0.61920  0.38300  Biso   1.000  H 
  N3       1.0000 0.16930  0.79905  0.19188  Biso   1.000  N 
  C5       1.0000 0.12320  0.78691  0.13586  Biso   1.000  C 
  W2       1.0000 0.03563  0.76622  0.02849  Biso   1.000  W 
  C6       1.0000 0.11330  0.67632  0.07506  Biso   1.000  C 
  N4       1.0000 0.15380  0.62894  0.09994  Biso   1.000  N 
  C7       1.0000 0.18270  0.83513  0.03112  Biso   1.000  C 
  N5       1.0000 0.26190  0.87045  0.03344  Biso   1.000  N 
  C8       1.0000 0.14660  0.72693  0.96437  Biso   1.000  C 
  N6       1.0000 0.20040  0.70572  0.92808  Biso   1.000  N 
  Nd2      1.0000 0.27061  0.66840  0.82097  Biso   1.000  Nd
  O2       1.0000 0.24690  0.57230  0.74804  Biso   1.000  O 
  C9       1.0000 0.19520  0.55477  0.68930  Biso   1.000  C 
  H8       1.0000 0.13090  0.58140  0.66340  Biso   1.000  H 
  N7       1.0000 0.22050  0.50329  0.65974  Biso   1.000  N 
  C10      1.0000 0.31280  0.45910  0.69870  Biso   1.000  C 
  H9       1.0000 0.28280  0.41490  0.68970  Biso   1.000  H 
  H10      1.0000 0.38990  0.46410  0.68450  Biso   1.000  H 
  H11      1.0000 0.32800  0.46830  0.74810  Biso   1.000  H 
  C11      1.0000 0.16050  0.48710  0.58840  Biso   1.000  C 
  H12      1.0000 0.13050  0.44270  0.58590  Biso   1.000  H 
  H13      1.0000 0.22000  0.49150  0.56020  Biso   1.000  H 
  H14      1.0000 0.09060  0.51620  0.57080  Biso   1.000  H 
  N8       1.0000 0.16930  0.70095  0.69188  Biso   1.000  N 
  C12      1.0000 0.12320  0.71309  0.63586  Biso   1.000  C 
  O3       1.0000 0.42730  0.69136  0.75920  Biso   1.000  O 
  C13      1.0000 0.43630  0.69680  0.69930  Biso   1.000  C 
  H15      1.0000 0.43040  0.65840  0.67290  Biso   1.000  H 
  N9       1.0000 0.45320  0.74992  0.66896  Biso   1.000  N 
  C14      1.0000 0.45590  0.81100  0.70410  Biso   1.000  C 
  H16      1.0000 0.38540  0.83720  0.67980  Biso   1.000  H 
  H17      1.0000 0.45100  0.80350  0.75160  Biso   1.000  H 
  H18      1.0000 0.53310  0.83350  0.70470  Biso   1.000  H 
  C15      1.0000 0.46850  0.75120  0.59920  Biso   1.000  C 
  H19      1.0000 0.40310  0.77750  0.56990  Biso   1.000  H 
  H20      1.0000 0.46340  0.70730  0.58090  Biso   1.000  H 
  H21      1.0000 0.54940  0.76960  0.59970  Biso   1.000  H 
  O4       1.0000 0.04730  0.65963  0.79104  Biso   1.000  O 
  C16      1.0000 0.96120  0.69430  0.78880  Biso   1.000  C 
  N10      1.0000 0.84600  0.68750  0.75540  Biso   1.000  N 
  C17      1.0000 0.81510  0.62940  0.71580  Biso   1.000  C 
  H22      1.0000 0.78950  0.64000  0.66650  Biso   1.000  H 
  H23      1.0000 0.74730  0.60750  0.72920  Biso   1.000  H 
  H24      1.0000 0.88760  0.60120  0.72470  Biso   1.000  H 
  C18      1.0000 0.75430  0.73440  0.75860  Biso   1.000  C 
  H25      1.0000 0.72390  0.75460  0.71320  Biso   1.000  H 
  H26      1.0000 0.68550  0.71350  0.77200  Biso   1.000  H 
  H27      1.0000 0.79090  0.76720  0.79280  Biso   1.000  H 
  H28      1.0000 0.97970  0.73250  0.81530  Biso   1.000  H 
  N11      1.0000 0.44950  0.58521  0.87272  Biso   1.000  N 
  C19      1.0000 0.42130  0.52696  0.89630  Biso   1.000  C 
  C20      1.0000 0.50920  0.47711  0.91360  Biso   1.000  C 
  C21      1.0000 0.47450  0.41788  0.94050  Biso   1.000  C 
  C22      1.0000 0.36030  0.40862  0.94740  Biso   1.000  C 
  H29      1.0000 0.33940  0.36840  0.96380  Biso   1.000  H 
  C23      1.0000 0.26850  0.45803  0.93052  Biso   1.000  C 
  C24      1.0000 0.29990  0.51718  0.90532  Biso   1.000  C 
  N12      1.0000 0.21810  0.56731  0.89044  Biso   1.000  N 
  C25      1.0000 0.10760  0.55874  0.90215  Biso   1.000  C 
  H30      1.0000 0.05120  0.59380  0.89380  Biso   1.000  H 
  C26      1.0000 0.06950  0.50130  0.92604  Biso   1.000  C 
  C27      1.0000 0.14920  0.45100  0.93960  Biso   1.000  C 
  H31      1.0000 0.12420  0.41130  0.95510  Biso   1.000  H 
  H32      1.0000 0.98880  0.49740  0.93270  Biso   1.000  H 
  H33      1.0000 0.53410  0.38470  0.95350  Biso   1.000  H 
  C28      1.0000 0.62780  0.48820  0.90430  Biso   1.000  C 
  H34      1.0000 0.68810  0.45510  0.91350  Biso   1.000  H 
  C29      1.0000 0.65580  0.54680  0.88220  Biso   1.000  C 
  H35      1.0000 0.73620  0.55530  0.87670  Biso   1.000  H 
  C30      1.0000 0.56480  0.59401  0.86779  Biso   1.000  C 
  H36      1.0000 0.58630  0.63500  0.85360  Biso   1.000  H 
  O5       1.0000 0.44230  0.72552  0.90016  Biso   1.000  O 
  C31      1.0000 0.44470  0.77908  0.92816  Biso   1.000  C 
  H37      1.0000 0.37190  0.79350  0.93970  Biso   1.000  H 
  N13      1.0000 0.54130  0.81650  0.94252  Biso   1.000  N 
  C32      1.0000 0.54080  0.87800  0.97630  Biso   1.000  C 
  H38      1.0000 0.55230  0.91250  0.94520  Biso   1.000  H 
  H39      1.0000 0.46150  0.88390  0.98790  Biso   1.000  H 
  H40      1.0000 0.60810  0.87930  0.01860  Biso   1.000  H 
  C33      1.0000 0.65450  0.79760  0.92530  Biso   1.000  C 
  H41      1.0000 0.64540  0.75390  0.90640  Biso   1.000  H 
  H42      1.0000 0.67140  0.82730  0.89100  Biso   1.000  H 
  H43      1.0000 0.72320  0.79870  0.96710  Biso   1.000  H 
  O6       1.0000 0.22480  0.78615  0.81132  Biso   1.000  O 
  C34      1.0000 0.14180  0.82010  0.77560  Biso   1.000  C 
  H44      1.0000 0.08430  0.79940  0.73860  Biso   1.000  H 
  N14      1.0000 0.12540  0.88107  0.78350  Biso   1.000  N 
  C35      1.0000 0.02410  0.91650  0.74030  Biso   1.000  C 
  H45      1.0000 0.05610  0.95460  0.72200  Biso   1.000  H 
  H46      1.0000 0.98000  0.88930  0.70200  Biso   1.000  H 
  H47      1.0000 0.96730  0.92990  0.76770  Biso   1.000  H 
  C36      1.0000 0.19560  0.91280  0.84640  Biso   1.000  C 
  H48      1.0000 0.26790  0.93420  0.83740  Biso   1.000  H 
  H49      1.0000 0.14310  0.94480  0.86100  Biso   1.000  H 
  H50      1.0000 0.22290  0.88080  0.88300  Biso   1.000  H 
  C37      1.0000 0.89910  0.73712  0.08230  Biso   1.000  C 
  N15      1.0000 0.82700  0.72225  0.11060  Biso   1.000  N 
  C38      1.0000 0.94470  0.85367  0.04757  Biso   1.000  C 
  N16      1.0000 0.89630  0.89968  0.05843  Biso   1.000  N 
  C39      1.0000 0.91540  0.69805  0.96140  Biso   1.000  C 
  N17      1.0000 0.85490  0.66237  0.92462  Biso   1.000  N 
  C40      1.0000 0.96940  0.81410  0.92958  Biso   1.000  C 
  N18      1.0000 0.93330  0.83775  0.87709  Biso   1.000  N 
  O7       1.0000 0.24690  0.92770  0.24804  Biso   1.000  O 
  C41      1.0000 0.19520  0.94523  0.18930  Biso   1.000  C 
  H51      1.0000 0.13090  0.91860  0.16340  Biso   1.000  H 
  N19      1.0000 0.22050  0.99671  0.15974  Biso   1.000  N 
  C42      1.0000 0.31280  0.04090  0.19870  Biso   1.000  C 
  H52      1.0000 0.28280  0.08510  0.18970  Biso   1.000  H 
  H53      1.0000 0.38990  0.03590  0.18450  Biso   1.000  H 
  H54      1.0000 0.32800  0.03170  0.24810  Biso   1.000  H 
  C43      1.0000 0.16050  0.01290  0.08840  Biso   1.000  C 
  H55      1.0000 0.22000  0.00850  0.06020  Biso   1.000  H 
  H56      1.0000 0.13050  0.05730  0.08590  Biso   1.000  H 
  H57      1.0000 0.09060  0.98380  0.07080  Biso   1.000  H 
  O8       1.0000 0.42730  0.80864  0.25920  Biso   1.000  O 
  C44      1.0000 0.43630  0.80320  0.19930  Biso   1.000  C 
  H58      1.0000 0.43040  0.84160  0.17290  Biso   1.000  H 
  N20      1.0000 0.45320  0.75008  0.16896  Biso   1.000  N 
  C45      1.0000 0.45590  0.68900  0.20410  Biso   1.000  C 
  H59      1.0000 0.38540  0.66280  0.17980  Biso   1.000  H 
  H60      1.0000 0.45100  0.69650  0.25160  Biso   1.000  H 
  H61      1.0000 0.53310  0.66650  0.20470  Biso   1.000  H 
  C46      1.0000 0.46850  0.74880  0.09920  Biso   1.000  C 
  H62      1.0000 0.40310  0.72250  0.06990  Biso   1.000  H 
  H63      1.0000 0.54940  0.73040  0.09970  Biso   1.000  H 
  H64      1.0000 0.46340  0.79270  0.08090  Biso   1.000  H 
  N21      1.0000 0.44950  0.91479  0.37272  Biso   1.000  N 
  C47      1.0000 0.42130  0.97304  0.39630  Biso   1.000  C 
  C48      1.0000 0.29990  0.98282  0.40532  Biso   1.000  C 
  N22      1.0000 0.21810  0.93269  0.39044  Biso   1.000  N 
  C49      1.0000 0.10760  0.94126  0.40215  Biso   1.000  C 
  H65      1.0000 0.05120  0.90620  0.39380  Biso   1.000  H 
  C50      1.0000 0.06950  0.99870  0.42604  Biso   1.000  C 
  H66      1.0000 0.98880  0.00260  0.43270  Biso   1.000  H 
  C51      1.0000 0.14920  0.04900  0.43960  Biso   1.000  C 
  C52      1.0000 0.26850  0.04197  0.43052  Biso   1.000  C 
  C53      1.0000 0.36030  0.09138  0.44740  Biso   1.000  C 
  H67      1.0000 0.33940  0.13160  0.46380  Biso   1.000  H 
  C54      1.0000 0.47450  0.08212  0.44050  Biso   1.000  C 
  H68      1.0000 0.53410  0.11530  0.45350  Biso   1.000  H 
  C55      1.0000 0.50920  0.02289  0.41360  Biso   1.000  C 
  C56      1.0000 0.62780  0.01180  0.40430  Biso   1.000  C 
  H69      1.0000 0.68810  0.04490  0.41350  Biso   1.000  H 
  C57      1.0000 0.65580  0.95320  0.38220  Biso   1.000  C 
  H70      1.0000 0.73620  0.94470  0.37670  Biso   1.000  H 
  C58      1.0000 0.56480  0.90599  0.36779  Biso   1.000  C 
  H71      1.0000 0.58630  0.86500  0.35360  Biso   1.000  H 
  H72      1.0000 0.12420  0.08870  0.45510  Biso   1.000  H 
  O9       1.0000 0.04730  0.84037  0.29104  Biso   1.000  O 
  C59      1.0000 0.96120  0.80570  0.28880  Biso   1.000  C 
  N23      1.0000 0.84600  0.81250  0.25540  Biso   1.000  N 
  C60      1.0000 0.81510  0.87060  0.21580  Biso   1.000  C 
  H73      1.0000 0.78950  0.86000  0.16650  Biso   1.000  H 
  H74      1.0000 0.74730  0.89250  0.22920  Biso   1.000  H 
  H75      1.0000 0.88760  0.89880  0.22470  Biso   1.000  H 
  C61      1.0000 0.75430  0.76560  0.25860  Biso   1.000  C 
  H76      1.0000 0.72390  0.74540  0.21320  Biso   1.000  H 
  H77      1.0000 0.68550  0.78650  0.27200  Biso   1.000  H 
  H78      1.0000 0.79090  0.73280  0.29280  Biso   1.000  H 
  H79      1.0000 0.97970  0.76750  0.31530  Biso   1.000  H 
  O10      1.0000 0.44230  0.77448  0.40016  Biso   1.000  O 
  C62      1.0000 0.44470  0.72092  0.42816  Biso   1.000  C 
  H80      1.0000 0.37190  0.70650  0.43970  Biso   1.000  H 
  N24      1.0000 0.54130  0.68350  0.44252  Biso   1.000  N 
  C63      1.0000 0.54080  0.62200  0.47630  Biso   1.000  C 
  H81      1.0000 0.46150  0.61610  0.48790  Biso   1.000  H 
  H82      1.0000 0.55230  0.58750  0.44520  Biso   1.000  H 
  H83      1.0000 0.60810  0.62070  0.51860  Biso   1.000  H 
  C64      1.0000 0.65450  0.70240  0.42530  Biso   1.000  C 
  H84      1.0000 0.67140  0.67270  0.39100  Biso   1.000  H 
  H85      1.0000 0.72320  0.70130  0.46710  Biso   1.000  H 
  H86      1.0000 0.64540  0.74610  0.40640  Biso   1.000  H 
  C65      1.0000 0.18270  0.66487  0.53112  Biso   1.000  C 
  N25      1.0000 0.26190  0.62955  0.53344  Biso   1.000  N 
  C66      1.0000 0.11330  0.82368  0.57506  Biso   1.000  C 
  N26      1.0000 0.15380  0.87106  0.59994  Biso   1.000  N 
  C67      1.0000 0.96940  0.68590  0.42958  Biso   1.000  C 
  N27      1.0000 0.93330  0.66225  0.37709  Biso   1.000  N 
  C68      1.0000 0.91540  0.80195  0.46140  Biso   1.000  C 
  N28      1.0000 0.85490  0.83763  0.42462  Biso   1.000  N 
  C69      1.0000 0.89910  0.76288  0.58230  Biso   1.000  C 
  N29      1.0000 0.82700  0.77775  0.61060  Biso   1.000  N 
  C70      1.0000 0.94470  0.64633  0.54757  Biso   1.000  C 
  N30      1.0000 0.89630  0.60032  0.55843  Biso   1.000  N 
