data_image0
_cell_length_a       15.267
_cell_length_b       11.903
_cell_length_c       10.38
_cell_angle_alpha    90
_cell_angle_beta     98.68
_cell_angle_gamma    90

_symmetry_space_group_name_H-M    "P 1"
_symmetry_int_tables_number       1

loop_
  _symmetry_equiv_pos_as_xyz
  'x, y, z'

loop_
  _atom_site_label
  _atom_site_occupancy
  _atom_site_fract_x
  _atom_site_fract_y
  _atom_site_fract_z
  _atom_site_thermal_displace_type
  _atom_site_B_iso_or_equiv
  _atom_site_type_symbol
  Zn1      1.0000 0.42618  0.36791  0.56700  Biso   1.000  Zn
  O1       1.0000 0.37850  0.42630  0.39330  Biso   1.000  O 
  P1       1.0000 0.37661  0.54250  0.33530  Biso   1.000  P 
  C1       1.0000 0.26990  0.60500  0.35750  Biso   1.000  C 
  C2       1.0000 0.22940  0.58200  0.46100  Biso   1.000  C 
  C3       1.0000 0.15470  0.62650  0.48350  Biso   1.000  C 
  C4       1.0000 0.11680  0.70360  0.40000  Biso   1.000  C 
  H1       1.0000 0.06340  0.73590  0.41250  Biso   1.000  H 
  C5       1.0000 0.15710  0.73700  0.29070  Biso   1.000  C 
  H2       1.0000 0.13250  0.79380  0.23520  Biso   1.000  H 
  N1       1.0000 0.23180  0.68450  0.27020  Biso   1.000  N 
  H3       1.0000 0.26005  0.70348  0.19044  Biso   1.000  H 
  H4       1.0000 0.12900  0.60520  0.55540  Biso   1.000  H 
  H5       1.0000 0.25660  0.53030  0.52140  Biso   1.000  H 
  O2       1.0000 0.37570  0.53670  0.18960  Biso   1.000  O 
  Zn2      1.0000 0.42618  0.63209  0.06700  Biso   1.000  Zn
  Br1      1.0000 0.38897  0.82482  0.06231  Biso   1.000  Br
  O3       1.0000 0.55330  0.62000  0.09320  Biso   1.000  O 
  P2       1.0000 0.62339  0.54250  0.16470  Biso   1.000  P 
  O4       1.0000 0.62150  0.42630  0.10670  Biso   1.000  O 
  Zn3      1.0000 0.57382  0.36791  0.93300  Biso   1.000  Zn
  O5       1.0000 0.44670  0.38000  0.90680  Biso   1.000  O 
  P3       1.0000 0.37661  0.45750  0.83530  Biso   1.000  P 
  C6       1.0000 0.26990  0.39500  0.85750  Biso   1.000  C 
  C7       1.0000 0.22940  0.41800  0.96100  Biso   1.000  C 
  C8       1.0000 0.15470  0.37350  0.98350  Biso   1.000  C 
  C9       1.0000 0.11680  0.29640  0.90000  Biso   1.000  C 
  C10      1.0000 0.15710  0.26300  0.79070  Biso   1.000  C 
  H6       1.0000 0.13250  0.20620  0.73520  Biso   1.000  H 
  N2       1.0000 0.23180  0.31550  0.77020  Biso   1.000  N 
  H7       1.0000 0.26005  0.29652  0.69044  Biso   1.000  H 
  H8       1.0000 0.06340  0.26410  0.91250  Biso   1.000  H 
  H9       1.0000 0.12900  0.39480  0.05540  Biso   1.000  H 
  H10      1.0000 0.25660  0.46970  0.02140  Biso   1.000  H 
  O6       1.0000 0.37570  0.46330  0.68960  Biso   1.000  O 
  O7       1.0000 0.37850  0.57370  0.89330  Biso   1.000  O 
  O8       1.0000 0.62430  0.46330  0.81040  Biso   1.000  O 
  P4       1.0000 0.62339  0.45750  0.66470  Biso   1.000  P 
  O9       1.0000 0.55330  0.38000  0.59320  Biso   1.000  O 
  C11      1.0000 0.73010  0.39500  0.64250  Biso   1.000  C 
  C12      1.0000 0.77060  0.41800  0.53900  Biso   1.000  C 
  H11      1.0000 0.74340  0.46970  0.47860  Biso   1.000  H 
  C13      1.0000 0.84530  0.37350  0.51650  Biso   1.000  C 
  H12      1.0000 0.87100  0.39480  0.44460  Biso   1.000  H 
  C14      1.0000 0.88320  0.29640  0.60000  Biso   1.000  C 
  C15      1.0000 0.84290  0.26300  0.70930  Biso   1.000  C 
  H13      1.0000 0.86750  0.20620  0.76480  Biso   1.000  H 
  N3       1.0000 0.76820  0.31550  0.72980  Biso   1.000  N 
  H14      1.0000 0.73995  0.29652  0.80956  Biso   1.000  H 
  H15      1.0000 0.93660  0.26410  0.58750  Biso   1.000  H 
  O10      1.0000 0.62150  0.57370  0.60670  Biso   1.000  O 
  Zn4      1.0000 0.57382  0.63209  0.43300  Biso   1.000  Zn
  O11      1.0000 0.44670  0.62000  0.40680  Biso   1.000  O 
  Br2      1.0000 0.61103  0.82482  0.43769  Biso   1.000  Br
  O12      1.0000 0.62430  0.53670  0.31040  Biso   1.000  O 
  Br3      1.0000 0.61103  0.17518  0.93769  Biso   1.000  Br
  C16      1.0000 0.73010  0.60500  0.14250  Biso   1.000  C 
  C17      1.0000 0.77060  0.58200  0.03900  Biso   1.000  C 
  C18      1.0000 0.84530  0.62650  0.01650  Biso   1.000  C 
  C19      1.0000 0.88320  0.70360  0.10000  Biso   1.000  C 
  C20      1.0000 0.84290  0.73700  0.20930  Biso   1.000  C 
  H16      1.0000 0.86750  0.79380  0.26480  Biso   1.000  H 
  N4       1.0000 0.76820  0.68450  0.22980  Biso   1.000  N 
  H17      1.0000 0.73995  0.70348  0.30956  Biso   1.000  H 
  H18      1.0000 0.93660  0.73590  0.08750  Biso   1.000  H 
  H19      1.0000 0.87100  0.60520  0.94460  Biso   1.000  H 
  H20      1.0000 0.74340  0.53030  0.97860  Biso   1.000  H 
  Br4      1.0000 0.38897  0.17518  0.56231  Biso   1.000  Br
