data_image0
_cell_length_a       20.114
_cell_length_b       11.127
_cell_length_c       22.187
_cell_angle_alpha    90
_cell_angle_beta     101.27
_cell_angle_gamma    90

_symmetry_space_group_name_H-M    "P 1"
_symmetry_int_tables_number       1

loop_
  _symmetry_equiv_pos_as_xyz
  'x, y, z'

loop_
  _atom_site_label
  _atom_site_occupancy
  _atom_site_fract_x
  _atom_site_fract_y
  _atom_site_fract_z
  _atom_site_thermal_displace_type
  _atom_site_B_iso_or_equiv
  _atom_site_type_symbol
  Dy1      1.0000 0.02803  0.25021  0.04595  Biso   1.000  Dy
  N1       1.0000 0.12030  0.11790  0.14550  Biso   1.000  N 
  O1       1.0000 0.12850  0.22460  0.13120  Biso   1.000  O 
  O2       1.0000 0.15570  0.05860  0.18320  Biso   1.000  O 
  O3       1.0000 0.06660  0.07570  0.11380  Biso   1.000  O 
  O4       1.0000 0.10630  0.36500  0.01740  Biso   1.000  O 
  C1       1.0000 0.16450  0.35030  0.99550  Biso   1.000  C 
  H1       1.0000 0.15720  0.28940  0.96360  Biso   1.000  H 
  C2       1.0000 0.18800  0.46640  0.96920  Biso   1.000  C 
  C3       1.0000 0.23890  0.46640  0.93510  Biso   1.000  C 
  H2       1.0000 0.26020  0.39530  0.92760  Biso   1.000  H 
  C4       1.0000 0.25690  0.57280  0.91290  Biso   1.000  C 
  H3       1.0000 0.29060  0.57570  0.88970  Biso   1.000  H 
  C5       1.0000 0.22460  0.67590  0.92530  Biso   1.000  C 
  C6       1.0000 0.17450  0.66840  0.95920  Biso   1.000  C 
  H4       1.0000 0.15290  0.73840  0.96770  Biso   1.000  H 
  N2       1.0000 0.15580  0.56410  0.98030  Biso   1.000  N 
  Ni1      1.0000 0.07732  0.53565  0.02532  Biso   1.000  Ni
  O5       1.0000 0.04650  0.70200  0.03550  Biso   1.000  O 
  C7       1.0000 0.07560  0.76140  0.09090  Biso   1.000  C 
  H5       1.0000 0.04020  0.78110  0.11340  Biso   1.000  H 
  H6       1.0000 0.09620  0.83600  0.08130  Biso   1.000  H 
  C8       1.0000 0.12780  0.68570  0.13030  Biso   1.000  C 
  N3       1.0000 0.13680  0.57620  0.11070  Biso   1.000  N 
  C9       1.0000 0.18260  0.50660  0.14500  Biso   1.000  C 
  H7       1.0000 0.18990  0.42950  0.13150  Biso   1.000  H 
  C10      1.0000 0.21960  0.54590  0.20010  Biso   1.000  C 
  H8       1.0000 0.25060  0.49490  0.22410  Biso   1.000  H 
  C11      1.0000 0.21080  0.65920  0.21900  Biso   1.000  C 
  C12      1.0000 0.16430  0.72680  0.18510  Biso   1.000  C 
  H9       1.0000 0.15610  0.80360  0.19850  Biso   1.000  H 
  H10      1.0000 0.23700  0.68870  0.25530  Biso   1.000  H 
  Dy2      1.0000 0.97197  0.74979  0.95405  Biso   1.000  Dy
  Ni2      1.0000 0.92268  0.46435  0.97468  Biso   1.000  Ni
  N4       1.0000 0.86320  0.42380  0.88930  Biso   1.000  N 
  C13      1.0000 0.87220  0.31430  0.86970  Biso   1.000  C 
  C14      1.0000 0.92440  0.23860  0.90910  Biso   1.000  C 
  H11      1.0000 0.90380  0.16400  0.91870  Biso   1.000  H 
  H12      1.0000 0.95980  0.21890  0.88660  Biso   1.000  H 
  O6       1.0000 0.95350  0.29800  0.96450  Biso   1.000  O 
  C15      1.0000 0.83570  0.27320  0.81490  Biso   1.000  C 
  H13      1.0000 0.84390  0.19640  0.80150  Biso   1.000  H 
  C16      1.0000 0.78920  0.34080  0.78100  Biso   1.000  C 
  H14      1.0000 0.76300  0.31130  0.74470  Biso   1.000  H 
  C17      1.0000 0.78040  0.45410  0.79990  Biso   1.000  C 
  H15      1.0000 0.74940  0.50510  0.77590  Biso   1.000  H 
  C18      1.0000 0.81740  0.49340  0.85500  Biso   1.000  C 
  H16      1.0000 0.81010  0.57050  0.86850  Biso   1.000  H 
  O7       1.0000 0.89370  0.63500  0.98260  Biso   1.000  O 
  C19      1.0000 0.83550  0.64970  0.00450  Biso   1.000  C 
  H17      1.0000 0.84280  0.71060  0.03640  Biso   1.000  H 
  H18      1.0000 0.80000  0.67820  0.97150  Biso   1.000  H 
  C20      1.0000 0.81200  0.53360  0.03080  Biso   1.000  C 
  C21      1.0000 0.76110  0.53360  0.06490  Biso   1.000  C 
  C22      1.0000 0.74310  0.42720  0.08710  Biso   1.000  C 
  H19      1.0000 0.70940  0.42430  0.11030  Biso   1.000  H 
  C23      1.0000 0.77540  0.32410  0.07470  Biso   1.000  C 
  C24      1.0000 0.82550  0.33160  0.04080  Biso   1.000  C 
  H20      1.0000 0.84710  0.26160  0.03230  Biso   1.000  H 
  N5       1.0000 0.84420  0.43590  0.01970  Biso   1.000  N 
  H21      1.0000 0.76360  0.25010  0.08910  Biso   1.000  H 
  H22      1.0000 0.73980  0.60470  0.07240  Biso   1.000  H 
  O8       1.0000 0.99830  0.45140  0.05780  Biso   1.000  O 
  C25      1.0000 0.98170  0.49670  0.11100  Biso   1.000  C 
  C26      1.0000 0.95530  0.40030  0.14740  Biso   1.000  C 
  C27      1.0000 0.92120  0.42730  0.19320  Biso   1.000  C 
  H23      1.0000 0.91370  0.50690  0.20280  Biso   1.000  H 
  C28      1.0000 0.89810  0.33450  0.22530  Biso   1.000  C 
  H24      1.0000 0.87420  0.35130  0.25620  Biso   1.000  H 
  C29      1.0000 0.91030  0.21990  0.21150  Biso   1.000  C 
  C30      1.0000 0.94600  0.19900  0.16710  Biso   1.000  C 
  H25      1.0000 0.95540  0.11970  0.15850  Biso   1.000  H 
  N6       1.0000 0.96900  0.28660  0.13430  Biso   1.000  N 
  H26      1.0000 0.89460  0.15650  0.23220  Biso   1.000  H 
  H27      1.0000 0.94750  0.55870  0.10040  Biso   1.000  H 
  H28      1.0000 0.02150  0.53320  0.13600  Biso   1.000  H 
  O9       1.0000 0.00170  0.54860  0.94220  Biso   1.000  O 
  C31      1.0000 0.01830  0.50330  0.88900  Biso   1.000  C 
  H29      1.0000 0.05250  0.44130  0.89960  Biso   1.000  H 
  C32      1.0000 0.04470  0.59970  0.85260  Biso   1.000  C 
  C33      1.0000 0.07880  0.57270  0.80680  Biso   1.000  C 
  H30      1.0000 0.08630  0.49310  0.79720  Biso   1.000  H 
  C34      1.0000 0.10190  0.66550  0.77470  Biso   1.000  C 
  H31      1.0000 0.12580  0.64870  0.74380  Biso   1.000  H 
  C35      1.0000 0.08970  0.78010  0.78850  Biso   1.000  C 
  H32      1.0000 0.10540  0.84350  0.76780  Biso   1.000  H 
  C36      1.0000 0.05400  0.80100  0.83290  Biso   1.000  C 
  H33      1.0000 0.04460  0.88030  0.84150  Biso   1.000  H 
  N7       1.0000 0.03100  0.71340  0.86570  Biso   1.000  N 
  H34      1.0000 0.97850  0.46680  0.86400  Biso   1.000  H 
  O10      1.0000 0.87150  0.77540  0.86880  Biso   1.000  O 
  N8       1.0000 0.87970  0.88210  0.85450  Biso   1.000  N 
  O11      1.0000 0.84430  0.94140  0.81680  Biso   1.000  O 
  O12      1.0000 0.93340  0.92430  0.88620  Biso   1.000  O 
  N9       1.0000 0.05840  0.91210  0.96330  Biso   1.000  N 
  N10      1.0000 0.06660  0.01240  0.97150  Biso   1.000  N 
  N11      1.0000 0.07520  0.11260  0.98080  Biso   1.000  N 
  N12      1.0000 0.92480  0.88740  0.01920  Biso   1.000  N 
  N13      1.0000 0.93340  0.98760  0.02850  Biso   1.000  N 
  N14      1.0000 0.94160  0.08790  0.03670  Biso   1.000  N 
  H35      1.0000 0.23640  0.74990  0.91090  Biso   1.000  H 
  H36      1.0000 0.20000  0.32180  0.02850  Biso   1.000  H 
