data_image0
_cell_length_a       10.924
_cell_length_b       12.205
_cell_length_c       16.393
_cell_angle_alpha    90.82
_cell_angle_beta     107.16
_cell_angle_gamma    101.97

_symmetry_space_group_name_H-M    "P 1"
_symmetry_int_tables_number       1

loop_
  _symmetry_equiv_pos_as_xyz
  'x, y, z'

loop_
  _atom_site_label
  _atom_site_occupancy
  _atom_site_fract_x
  _atom_site_fract_y
  _atom_site_fract_z
  _atom_site_thermal_displace_type
  _atom_site_B_iso_or_equiv
  _atom_site_type_symbol
  Pb1      1.0000 0.62733  0.88768  0.58111  Biso   1.000  Pb
  N1       1.0000 0.43070  0.71200  0.54440  Biso   1.000  N 
  C1       1.0000 0.41700  0.62290  0.48990  Biso   1.000  C 
  C2       1.0000 0.32900  0.52360  0.48460  Biso   1.000  C 
  H1       1.0000 0.32410  0.46520  0.44590  Biso   1.000  H 
  C3       1.0000 0.24800  0.50850  0.53500  Biso   1.000  C 
  C4       1.0000 0.15340  0.40290  0.52770  Biso   1.000  C 
  H2       1.0000 0.16980  0.35250  0.49340  Biso   1.000  H 
  C5       1.0000 0.05850  0.38200  0.56430  Biso   1.000  C 
  H3       1.0000 0.04560  0.44260  0.60170  Biso   1.000  H 
  C6       1.0000 0.96320  0.27590  0.55820  Biso   1.000  C 
  C7       1.0000 0.87390  0.26800  0.60190  Biso   1.000  C 
  C8       1.0000 0.78370  0.16910  0.59860  Biso   1.000  C 
  H4       1.0000 0.72300  0.16700  0.62840  Biso   1.000  H 
  N2       1.0000 0.78150  0.07370  0.55240  Biso   1.000  N 
  C9       1.0000 0.86950  0.08110  0.51040  Biso   1.000  C 
  C10      1.0000 0.95800  0.17990  0.50980  Biso   1.000  C 
  H5       1.0000 0.01440  0.18200  0.47680  Biso   1.000  H 
  H6       1.0000 0.87170  0.01690  0.48000  Biso   1.000  H 
  H7       1.0000 0.87360  0.33060  0.63470  Biso   1.000  H 
  C11      1.0000 0.26080  0.60200  0.59110  Biso   1.000  C 
  H8       1.0000 0.20650  0.59830  0.62580  Biso   1.000  H 
  C12      1.0000 0.35420  0.69920  0.59420  Biso   1.000  C 
  H9       1.0000 0.36350  0.75850  0.63340  Biso   1.000  H 
  H10      1.0000 0.47010  0.62950  0.45430  Biso   1.000  H 
  O1       1.0000 0.66720  0.81970  0.46100  Biso   1.000  O 
  C13      1.0000 0.60250  0.86730  0.39850  Biso   1.000  C 
  O2       1.0000 0.52150  0.92140  0.40400  Biso   1.000  O 
  C14      1.0000 0.63730  0.85850  0.31730  Biso   1.000  C 
  C15      1.0000 0.58870  0.91700  0.24750  Biso   1.000  C 
  C16      1.0000 0.63460  0.91740  0.17760  Biso   1.000  C 
  H11      1.0000 0.60420  0.95950  0.13220  Biso   1.000  H 
  C17      1.0000 0.72440  0.85620  0.17520  Biso   1.000  C 
  H12      1.0000 0.75580  0.85800  0.12830  Biso   1.000  H 
  C18      1.0000 0.76960  0.79190  0.24080  Biso   1.000  C 
  C19      1.0000 0.73140  0.79810  0.31240  Biso   1.000  C 
  H13      1.0000 0.76890  0.76110  0.35940  Biso   1.000  H 
  H14      1.0000 0.82510  0.74520  0.23640  Biso   1.000  H 
  C20      1.0000 0.48400  0.98370  0.24340  Biso   1.000  C 
  O3       1.0000 0.51630  0.08740  0.25490  Biso   1.000  O 
  C21      1.0000 0.34800  0.92220  0.22100  Biso   1.000  C 
  Fe1      1.0000 0.23005  0.89447  0.09609  Biso   1.000  Fe
  C22      1.0000 0.31040  0.86480  0.00370  Biso   1.000  C 
  H15      1.0000 0.37750  0.82100  0.00800  Biso   1.000  H 
  C23      1.0000 0.17140  0.82340  0.97330  Biso   1.000  C 
  H16      1.0000 0.12560  0.74520  0.95410  Biso   1.000  H 
  C24      1.0000 0.11160  0.91440  0.97630  Biso   1.000  C 
  H17      1.0000 0.01700  0.91120  0.95990  Biso   1.000  H 
  C25      1.0000 0.21040  0.00820  0.00710  Biso   1.000  C 
  H18      1.0000 0.19730  0.08390  0.01640  Biso   1.000  H 
  C26      1.0000 0.33260  0.98010  0.02310  Biso   1.000  C 
  H19      1.0000 0.41860  0.03220  0.04430  Biso   1.000  H 
  C27      1.0000 0.29730  0.80540  0.19850  Biso   1.000  C 
  H20      1.0000 0.34860  0.74800  0.20040  Biso   1.000  H 
  C28      1.0000 0.15860  0.78690  0.17550  Biso   1.000  C 
  H21      1.0000 0.09790  0.71360  0.15650  Biso   1.000  H 
  C29      1.0000 0.11980  0.89040  0.17900  Biso   1.000  C 
  H22      1.0000 0.02990  0.90150  0.16570  Biso   1.000  H 
  C30      1.0000 0.23710  0.97320  0.20810  Biso   1.000  C 
  H23      1.0000 0.24240  0.05380  0.21770  Biso   1.000  H 
  O4       1.0000 0.72570  0.71880  0.63650  Biso   1.000  O 
  C31      1.0000 0.83300  0.77860  0.66710  Biso   1.000  C 
  O5       1.0000 0.86590  0.88130  0.65900  Biso   1.000  O 
  C32      1.0000 0.94630  0.72570  0.71990  Biso   1.000  C 
  C33      1.0000 0.07830  0.78350  0.72920  Biso   1.000  C 
  H24      1.0000 0.09530  0.85370  0.70840  Biso   1.000  H 
  C34      1.0000 0.17870  0.73400  0.76890  Biso   1.000  C 
  H25      1.0000 0.26510  0.77050  0.77570  Biso   1.000  H 
  C35      1.0000 0.15140  0.62760  0.79960  Biso   1.000  C 
  H26      1.0000 0.22020  0.59340  0.82510  Biso   1.000  H 
  C36      1.0000 0.02780  0.57450  0.79280  Biso   1.000  C 
  H27      1.0000 0.01340  0.50530  0.81550  Biso   1.000  H 
  C37      1.0000 0.91770  0.62100  0.75200  Biso   1.000  C 
  C38      1.0000 0.79120  0.55160  0.74920  Biso   1.000  C 
  O6       1.0000 0.76170  0.45300  0.72190  Biso   1.000  O 
  C39      1.0000 0.69800  0.60190  0.78050  Biso   1.000  C 
  Fe2      1.0000 0.69306  0.58528  0.90456  Biso   1.000  Fe
  C40      1.0000 0.67600  0.47140  0.98820  Biso   1.000  C 
  H28      1.0000 0.59880  0.41110  0.98340  Biso   1.000  H 
  C41      1.0000 0.78350  0.46370  0.95900  Biso   1.000  C 
  H29      1.0000 0.79690  0.39830  0.93020  Biso   1.000  H 
  C42      1.0000 0.86770  0.56170  0.98680  Biso   1.000  C 
  H30      1.0000 0.95190  0.58240  0.97470  Biso   1.000  H 
  C43      1.0000 0.81790  0.63430  0.02180  Biso   1.000  C 
  C44      1.0000 0.70520  0.57630  0.03110  Biso   1.000  C 
  H31      1.0000 0.64990  0.60500  0.05980  Biso   1.000  H 
  H32      1.0000 0.86200  0.71180  0.04460  Biso   1.000  H 
  C45      1.0000 0.57290  0.53630  0.78230  Biso   1.000  C 
  H33      1.0000 0.53160  0.45920  0.75740  Biso   1.000  H 
  C46      1.0000 0.51960  0.60760  0.82550  Biso   1.000  C 
  H34      1.0000 0.43470  0.58620  0.83650  Biso   1.000  H 
  C47      1.0000 0.60580  0.71310  0.84930  Biso   1.000  C 
  H35      1.0000 0.59230  0.77680  0.88000  Biso   1.000  H 
  C48      1.0000 0.71900  0.70990  0.82380  Biso   1.000  C 
  H36      1.0000 0.79670  0.77120  0.83340  Biso   1.000  H 
