data_image0
_cell_length_a       23.995
_cell_length_b       23.995
_cell_length_c       28.351
_cell_angle_alpha    90
_cell_angle_beta     90
_cell_angle_gamma    120

_symmetry_space_group_name_H-M    "P 1"
_symmetry_int_tables_number       1

loop_
  _symmetry_equiv_pos_as_xyz
  'x, y, z'

loop_
  _atom_site_label
  _atom_site_occupancy
  _atom_site_fract_x
  _atom_site_fract_y
  _atom_site_fract_z
  _atom_site_thermal_displace_type
  _atom_site_B_iso_or_equiv
  _atom_site_type_symbol
  Zn1      1.0000 0.91109  0.45690  0.64351  Biso   1.000  Zn
  O1       1.0000 0.86190  0.36990  0.62017  Biso   1.000  O 
  C1       1.0000 0.84990  0.33970  0.58247  Biso   1.000  C 
  C2       1.0000 0.81320  0.26790  0.58517  Biso   1.000  C 
  C3       1.0000 0.80180  0.23130  0.54507  Biso   1.000  C 
  H1       1.0000 0.81590  0.25130  0.51597  Biso   1.000  H 
  C4       1.0000 0.76990  0.16560  0.54807  Biso   1.000  C 
  H2       1.0000 0.76520  0.14170  0.52107  Biso   1.000  H 
  C5       1.0000 0.74460  0.13390  0.58967  Biso   1.000  C 
  C6       1.0000 0.71220  0.06300  0.59147  Biso   1.000  C 
  C7       1.0000 0.73620  0.02990  0.56557  Biso   1.000  C 
  H3       1.0000 0.77450  0.05290  0.54897  Biso   1.000  H 
  C8       1.0000 0.70360  0.96340  0.56447  Biso   1.000  C 
  H4       1.0000 0.71970  0.94250  0.54607  Biso   1.000  H 
  C9       1.0000 0.64710  0.92680  0.59027  Biso   1.000  C 
  C10      1.0000 0.61190  0.85680  0.58677  Biso   1.000  C 
  C11      1.0000 0.64480  0.82240  0.58330  Biso   1.000  C 
  H5       1.0000 0.68950  0.84480  0.58330  Biso   1.000  H 
  C12      1.0000 0.61190  0.75510  0.57990  Biso   1.000  C 
  C13      1.0000 0.54520  0.72270  0.58010  Biso   1.000  C 
  H6       1.0000 0.52280  0.67810  0.57800  Biso   1.000  H 
  C14      1.0000 0.51050  0.75530  0.58330  Biso   1.000  C 
  C15      1.0000 0.44010  0.72000  0.58330  Biso   1.000  C 
  C16      1.0000 0.40490  0.66430  0.55680  Biso   1.000  C 
  C17      1.0000 0.33890  0.63070  0.55780  Biso   1.000  C 
  C18      1.0000 0.30530  0.65270  0.58330  Biso   1.000  C 
  C19      1.0000 0.23230  0.61610  0.58330  Biso   1.000  C 
  C20      1.0000 0.19960  0.58690  0.54130  Biso   1.000  C 
  H7       1.0000 0.22160  0.59050  0.51350  Biso   1.000  H 
  C21      1.0000 0.13170  0.55180  0.54360  Biso   1.000  C 
  H8       1.0000 0.10870  0.52970  0.51690  Biso   1.000  H 
  C22      1.0000 0.09840  0.54920  0.58330  Biso   1.000  C 
  C23      1.0000 0.02620  0.51310  0.58330  Biso   1.000  C 
  O2       1.0000 0.99980  0.49240  0.54480  Biso   1.000  O 
  Zn2      1.0000 0.91109  0.45419  0.52316  Biso   1.000  Zn
  Cl1      1.0000 0.91427  0.46327  0.44591  Biso   1.000  Cl
  O3       1.0000 0.86540  0.36380  0.54227  Biso   1.000  O 
  O4       1.0000 0.86190  0.49200  0.54650  Biso   1.000  O 
  C24      1.0000 0.84990  0.51020  0.58420  Biso   1.000  C 
  C25      1.0000 0.81320  0.54530  0.58150  Biso   1.000  C 
  C26      1.0000 0.78700  0.54960  0.53960  Biso   1.000  C 
  C27      1.0000 0.75400  0.58370  0.53740  Biso   1.000  C 
  H9       1.0000 0.73820  0.58820  0.50860  Biso   1.000  H 
  C28      1.0000 0.74460  0.61070  0.57700  Biso   1.000  C 
  C29      1.0000 0.71220  0.64920  0.57520  Biso   1.000  C 
  C30      1.0000 0.65800  0.63170  0.54860  Biso   1.000  C 
  H10      1.0000 0.64250  0.59530  0.52960  Biso   1.000  H 
  C31      1.0000 0.62550  0.66540  0.54880  Biso   1.000  C 
  H11      1.0000 0.58890  0.65140  0.53040  Biso   1.000  H 
  C32      1.0000 0.64710  0.72030  0.57640  Biso   1.000  C 
  C33      1.0000 0.70360  0.74020  0.60220  Biso   1.000  C 
  H12      1.0000 0.71970  0.77720  0.62060  Biso   1.000  H 
  C34      1.0000 0.73620  0.70630  0.60110  Biso   1.000  C 
  H13      1.0000 0.77450  0.72160  0.61770  Biso   1.000  H 
  C35      1.0000 0.76990  0.60430  0.61860  Biso   1.000  C 
  H14      1.0000 0.76520  0.62350  0.64560  Biso   1.000  H 
  C36      1.0000 0.80180  0.57050  0.62160  Biso   1.000  C 
  H15      1.0000 0.81590  0.56460  0.65070  Biso   1.000  H 
  H16      1.0000 0.79130  0.52980  0.51270  Biso   1.000  H 
  O5       1.0000 0.86540  0.50160  0.62440  Biso   1.000  O 
  O6       1.0000 0.99980  0.50740  0.62187  Biso   1.000  O 
  C37      1.0000 0.13170  0.57990  0.62307  Biso   1.000  C 
  H17      1.0000 0.10870  0.57900  0.64977  Biso   1.000  H 
  C38      1.0000 0.19960  0.61270  0.62537  Biso   1.000  C 
  H18      1.0000 0.22160  0.63110  0.65317  Biso   1.000  H 
  C39      1.0000 0.33890  0.70820  0.60887  Biso   1.000  C 
  H19      1.0000 0.31670  0.72420  0.62577  Biso   1.000  H 
  C40      1.0000 0.40490  0.74060  0.60987  Biso   1.000  C 
  H20      1.0000 0.42670  0.77720  0.62857  Biso   1.000  H 
  H21      1.0000 0.31670  0.59250  0.54090  Biso   1.000  H 
  H22      1.0000 0.42670  0.64950  0.53810  Biso   1.000  H 
  C41      1.0000 0.54520  0.82250  0.58657  Biso   1.000  C 
  H23      1.0000 0.52280  0.84470  0.58867  Biso   1.000  H 
  C42      1.0000 0.62550  0.96010  0.61787  Biso   1.000  C 
  H24      1.0000 0.58890  0.93750  0.63627  Biso   1.000  H 
  C43      1.0000 0.65800  0.02630  0.61807  Biso   1.000  C 
  H25      1.0000 0.64250  0.04720  0.63707  Biso   1.000  H 
  C44      1.0000 0.75400  0.17030  0.62927  Biso   1.000  C 
  H26      1.0000 0.73820  0.15000  0.65807  Biso   1.000  H 
  C45      1.0000 0.78700  0.23740  0.62707  Biso   1.000  C 
  H27      1.0000 0.79130  0.26150  0.65397  Biso   1.000  H 
  Cl2      1.0000 0.91427  0.45100  0.72076  Biso   1.000  Cl
