data_image0
_cell_length_a       13.3188
_cell_length_b       25.745
_cell_length_c       15.618
_cell_angle_alpha    90
_cell_angle_beta     96.499
_cell_angle_gamma    90

_symmetry_space_group_name_H-M    "P 1"
_symmetry_int_tables_number       1

loop_
  _symmetry_equiv_pos_as_xyz
  'x, y, z'

loop_
  _atom_site_label
  _atom_site_occupancy
  _atom_site_fract_x
  _atom_site_fract_y
  _atom_site_fract_z
  _atom_site_thermal_displace_type
  _atom_site_B_iso_or_equiv
  _atom_site_type_symbol
  N1       1.0000 0.67770  0.17900  0.79050  Biso   1.000  N 
  N2       1.0000 0.32230  0.17900  0.70950  Biso   1.000  N 
  N3       1.0000 0.17770  0.67900  0.79050  Biso   1.000  N 
  N4       1.0000 0.82230  0.67900  0.70950  Biso   1.000  N 
  N5       1.0000 0.32230  0.82100  0.20950  Biso   1.000  N 
  N6       1.0000 0.67770  0.82100  0.29050  Biso   1.000  N 
  N7       1.0000 0.82230  0.32100  0.20950  Biso   1.000  N 
  N8       1.0000 0.17770  0.32100  0.29050  Biso   1.000  N 
  O1       1.0000 0.75580  0.15980  0.82470  Biso   1.000  O 
  O2       1.0000 0.24420  0.15980  0.67530  Biso   1.000  O 
  O3       1.0000 0.25580  0.65980  0.82470  Biso   1.000  O 
  O4       1.0000 0.74420  0.65980  0.67530  Biso   1.000  O 
  O5       1.0000 0.24420  0.84020  0.17530  Biso   1.000  O 
  O6       1.0000 0.75580  0.84020  0.32470  Biso   1.000  O 
  O7       1.0000 0.74420  0.34020  0.17530  Biso   1.000  O 
  O8       1.0000 0.25580  0.34020  0.32470  Biso   1.000  O 
  O9       1.0000 0.66470  0.22370  0.76960  Biso   1.000  O 
  O10      1.0000 0.33530  0.22370  0.73040  Biso   1.000  O 
  O11      1.0000 0.16470  0.72370  0.76960  Biso   1.000  O 
  O12      1.0000 0.83530  0.72370  0.73040  Biso   1.000  O 
  O13      1.0000 0.33530  0.77630  0.23040  Biso   1.000  O 
  O14      1.0000 0.66470  0.77630  0.26960  Biso   1.000  O 
  O15      1.0000 0.83530  0.27630  0.23040  Biso   1.000  O 
  O16      1.0000 0.16470  0.27630  0.26960  Biso   1.000  O 
  C1       1.0000 0.58580  0.14140  0.77400  Biso   1.000  C 
  C2       1.0000 0.41420  0.14140  0.72600  Biso   1.000  C 
  C3       1.0000 0.08580  0.64140  0.77400  Biso   1.000  C 
  C4       1.0000 0.91420  0.64140  0.72600  Biso   1.000  C 
  C5       1.0000 0.41420  0.85860  0.22600  Biso   1.000  C 
  C6       1.0000 0.58580  0.85860  0.27400  Biso   1.000  C 
  C7       1.0000 0.91420  0.35860  0.22600  Biso   1.000  C 
  C8       1.0000 0.08580  0.35860  0.27400  Biso   1.000  C 
  C9       1.0000 0.59040  0.09030  0.77850  Biso   1.000  C 
  C10      1.0000 0.40960  0.09030  0.72150  Biso   1.000  C 
  C11      1.0000 0.09040  0.59030  0.77850  Biso   1.000  C 
  C12      1.0000 0.90960  0.59030  0.72150  Biso   1.000  C 
  C13      1.0000 0.40960  0.90970  0.22150  Biso   1.000  C 
  C14      1.0000 0.59040  0.90970  0.27850  Biso   1.000  C 
  C15      1.0000 0.90960  0.40970  0.22150  Biso   1.000  C 
  C16      1.0000 0.09040  0.40970  0.27850  Biso   1.000  C 
  C17      1.0000 0.50000  0.06050  0.75000  Biso   1.000  C 
  C18      1.0000 0.00000  0.56050  0.75000  Biso   1.000  C 
  C19      1.0000 0.50000  0.93950  0.25000  Biso   1.000  C 
  C20      1.0000 0.00000  0.43950  0.25000  Biso   1.000  C 
  C21      1.0000 0.50000  0.16880  0.75000  Biso   1.000  C 
  C22      1.0000 0.00000  0.66880  0.75000  Biso   1.000  C 
  C23      1.0000 0.50000  0.83120  0.25000  Biso   1.000  C 
  C24      1.0000 0.00000  0.33120  0.25000  Biso   1.000  C 
  Cd1      1.0000 0.00000  0.00110  0.25000  Biso   1.000  Cd
  Cd2      1.0000 0.50000  0.50110  0.25000  Biso   1.000  Cd
  Cd3      1.0000 0.00000  0.99890  0.75000  Biso   1.000  Cd
  Cd4      1.0000 0.50000  0.49890  0.75000  Biso   1.000  Cd
  I1       1.0000 0.83740  0.00440  0.36600  Biso   1.000  I 
  I2       1.0000 0.16260  0.00440  0.13400  Biso   1.000  I 
  I3       1.0000 0.33740  0.50440  0.36600  Biso   1.000  I 
  I4       1.0000 0.66260  0.50440  0.13400  Biso   1.000  I 
  I5       1.0000 0.16260  0.99560  0.63400  Biso   1.000  I 
  I6       1.0000 0.83740  0.99560  0.86600  Biso   1.000  I 
  I7       1.0000 0.66260  0.49560  0.63400  Biso   1.000  I 
  I8       1.0000 0.33740  0.49560  0.86600  Biso   1.000  I 
  N9       1.0000 0.92120  0.93210  0.16630  Biso   1.000  N 
  N10      1.0000 0.07880  0.93210  0.33370  Biso   1.000  N 
  N11      1.0000 0.42120  0.43210  0.16630  Biso   1.000  N 
  N12      1.0000 0.57880  0.43210  0.33370  Biso   1.000  N 
  N13      1.0000 0.07880  0.06790  0.83370  Biso   1.000  N 
  N14      1.0000 0.92120  0.06790  0.66630  Biso   1.000  N 
  N15      1.0000 0.57880  0.56790  0.83370  Biso   1.000  N 
  N16      1.0000 0.42120  0.56790  0.66630  Biso   1.000  N 
  C25      1.0000 0.97870  0.89490  0.13810  Biso   1.000  C 
  C26      1.0000 0.02130  0.89490  0.36190  Biso   1.000  C 
  C27      1.0000 0.47870  0.39490  0.13810  Biso   1.000  C 
  C28      1.0000 0.52130  0.39490  0.36190  Biso   1.000  C 
  C29      1.0000 0.02130  0.10510  0.86190  Biso   1.000  C 
  C30      1.0000 0.97870  0.10510  0.63810  Biso   1.000  C 
  C31      1.0000 0.52130  0.60510  0.86190  Biso   1.000  C 
  C32      1.0000 0.47870  0.60510  0.63810  Biso   1.000  C 
  C33      1.0000 0.94100  0.85020  0.09760  Biso   1.000  C 
  C34      1.0000 0.05900  0.85020  0.40240  Biso   1.000  C 
  C35      1.0000 0.44100  0.35020  0.09760  Biso   1.000  C 
  C36      1.0000 0.55900  0.35020  0.40240  Biso   1.000  C 
  C37      1.0000 0.05900  0.14980  0.90240  Biso   1.000  C 
  C38      1.0000 0.94100  0.14980  0.59760  Biso   1.000  C 
  C39      1.0000 0.55900  0.64980  0.90240  Biso   1.000  C 
  C40      1.0000 0.44100  0.64980  0.59760  Biso   1.000  C 
  C41      1.0000 0.83740  0.84290  0.08380  Biso   1.000  C 
  C42      1.0000 0.16260  0.84290  0.41620  Biso   1.000  C 
  C43      1.0000 0.33740  0.34290  0.08380  Biso   1.000  C 
  C44      1.0000 0.66260  0.34290  0.41620  Biso   1.000  C 
  C45      1.0000 0.16260  0.15710  0.91620  Biso   1.000  C 
  C46      1.0000 0.83740  0.15710  0.58380  Biso   1.000  C 
  C47      1.0000 0.66260  0.65710  0.91620  Biso   1.000  C 
  C48      1.0000 0.33740  0.65710  0.58380  Biso   1.000  C 
  C49      1.0000 0.77720  0.88170  0.11260  Biso   1.000  C 
  C50      1.0000 0.22280  0.88170  0.38740  Biso   1.000  C 
  C51      1.0000 0.27720  0.38170  0.11260  Biso   1.000  C 
  C52      1.0000 0.72280  0.38170  0.38740  Biso   1.000  C 
  C53      1.0000 0.22280  0.11830  0.88740  Biso   1.000  C 
  C54      1.0000 0.77720  0.11830  0.61260  Biso   1.000  C 
  C55      1.0000 0.72280  0.61830  0.88740  Biso   1.000  C 
  C56      1.0000 0.27720  0.61830  0.61260  Biso   1.000  C 
  C57      1.0000 0.82100  0.92520  0.15320  Biso   1.000  C 
  C58      1.0000 0.17900  0.92520  0.34680  Biso   1.000  C 
  C59      1.0000 0.32100  0.42520  0.15320  Biso   1.000  C 
  C60      1.0000 0.67900  0.42520  0.34680  Biso   1.000  C 
  C61      1.0000 0.17900  0.07480  0.84680  Biso   1.000  C 
  C62      1.0000 0.82100  0.07480  0.65320  Biso   1.000  C 
  C63      1.0000 0.67900  0.57480  0.84680  Biso   1.000  C 
  C64      1.0000 0.32100  0.57480  0.65320  Biso   1.000  C 
  C65      1.0000 0.79280  0.79490  0.04050  Biso   1.000  C 
  C66      1.0000 0.20720  0.79490  0.45950  Biso   1.000  C 
  C67      1.0000 0.29280  0.29490  0.04050  Biso   1.000  C 
  C68      1.0000 0.70720  0.29490  0.45950  Biso   1.000  C 
  C69      1.0000 0.20720  0.20510  0.95950  Biso   1.000  C 
  C70      1.0000 0.79280  0.20510  0.54050  Biso   1.000  C 
  C71      1.0000 0.70720  0.70510  0.95950  Biso   1.000  C 
  C72      1.0000 0.29280  0.70510  0.54050  Biso   1.000  C 
  C73      1.0000 0.74190  0.79880  0.95690  Biso   1.000  C 
  C74      1.0000 0.25810  0.79880  0.54310  Biso   1.000  C 
  C75      1.0000 0.24190  0.29880  0.95690  Biso   1.000  C 
  C76      1.0000 0.75810  0.29880  0.54310  Biso   1.000  C 
  C77      1.0000 0.25810  0.20120  0.04310  Biso   1.000  C 
  C78      1.0000 0.74190  0.20120  0.45690  Biso   1.000  C 
  C79      1.0000 0.75810  0.70120  0.04310  Biso   1.000  C 
  C80      1.0000 0.24190  0.70120  0.45690  Biso   1.000  C 
  C81      1.0000 0.80220  0.74720  0.08420  Biso   1.000  C 
  C82      1.0000 0.19780  0.74720  0.41580  Biso   1.000  C 
  C83      1.0000 0.30220  0.24720  0.08420  Biso   1.000  C 
  C84      1.0000 0.69780  0.24720  0.41580  Biso   1.000  C 
  C85      1.0000 0.19780  0.25280  0.91580  Biso   1.000  C 
  C86      1.0000 0.80220  0.25280  0.58420  Biso   1.000  C 
  C87      1.0000 0.69780  0.75280  0.91580  Biso   1.000  C 
  C88      1.0000 0.30220  0.75280  0.58420  Biso   1.000  C 
  C89      1.0000 0.73260  0.84680  0.91060  Biso   1.000  C 
  C90      1.0000 0.26740  0.84680  0.58940  Biso   1.000  C 
  C91      1.0000 0.23260  0.34680  0.91060  Biso   1.000  C 
  C92      1.0000 0.76740  0.34680  0.58940  Biso   1.000  C 
  C93      1.0000 0.26740  0.15320  0.08940  Biso   1.000  C 
  C94      1.0000 0.73260  0.15320  0.41060  Biso   1.000  C 
  C95      1.0000 0.76740  0.65320  0.08940  Biso   1.000  C 
  C96      1.0000 0.23260  0.65320  0.41060  Biso   1.000  C 
  C97      1.0000 0.68130  0.84980  0.83080  Biso   1.000  C 
  C98      1.0000 0.31870  0.84980  0.66920  Biso   1.000  C 
  C99      1.0000 0.18130  0.34980  0.83080  Biso   1.000  C 
  C100     1.0000 0.81870  0.34980  0.66920  Biso   1.000  C 
  C101     1.0000 0.31870  0.15020  0.16920  Biso   1.000  C 
  C102     1.0000 0.68130  0.15020  0.33080  Biso   1.000  C 
  C103     1.0000 0.81870  0.65020  0.16920  Biso   1.000  C 
  C104     1.0000 0.18130  0.65020  0.33080  Biso   1.000  C 
  C105     1.0000 0.63720  0.80470  0.79010  Biso   1.000  C 
  C106     1.0000 0.36280  0.80470  0.70990  Biso   1.000  C 
  C107     1.0000 0.13720  0.30470  0.79010  Biso   1.000  C 
  C108     1.0000 0.86280  0.30470  0.70990  Biso   1.000  C 
  C109     1.0000 0.36280  0.19530  0.20990  Biso   1.000  C 
  C110     1.0000 0.63720  0.19530  0.29010  Biso   1.000  C 
  C111     1.0000 0.86280  0.69530  0.20990  Biso   1.000  C 
  C112     1.0000 0.13720  0.69530  0.29010  Biso   1.000  C 
  C113     1.0000 0.85410  0.74180  0.17020  Biso   1.000  C 
  C114     1.0000 0.14590  0.74180  0.32980  Biso   1.000  C 
  C115     1.0000 0.35410  0.24180  0.17020  Biso   1.000  C 
  C116     1.0000 0.64590  0.24180  0.32980  Biso   1.000  C 
  C117     1.0000 0.14590  0.25820  0.82980  Biso   1.000  C 
  C118     1.0000 0.85410  0.25820  0.67020  Biso   1.000  C 
  C119     1.0000 0.64590  0.75820  0.82980  Biso   1.000  C 
  C120     1.0000 0.35410  0.75820  0.67020  Biso   1.000  C 
  N17      1.0000 0.91020  0.06790  0.17110  Biso   1.000  N 
  N18      1.0000 0.08980  0.06790  0.32890  Biso   1.000  N 
  N19      1.0000 0.41020  0.56790  0.17110  Biso   1.000  N 
  N20      1.0000 0.58980  0.56790  0.32890  Biso   1.000  N 
  N21      1.0000 0.08980  0.93210  0.82890  Biso   1.000  N 
  N22      1.0000 0.91020  0.93210  0.67110  Biso   1.000  N 
  N23      1.0000 0.58980  0.43210  0.82890  Biso   1.000  N 
  N24      1.0000 0.41020  0.43210  0.67110  Biso   1.000  N 
  C121     1.0000 0.88180  0.10900  0.21450  Biso   1.000  C 
  C122     1.0000 0.11820  0.10900  0.28550  Biso   1.000  C 
  C123     1.0000 0.38180  0.60900  0.21450  Biso   1.000  C 
  C124     1.0000 0.61820  0.60900  0.28550  Biso   1.000  C 
  C125     1.0000 0.11820  0.89100  0.78550  Biso   1.000  C 
  C126     1.0000 0.88180  0.89100  0.71450  Biso   1.000  C 
  C127     1.0000 0.61820  0.39100  0.78550  Biso   1.000  C 
  C128     1.0000 0.38180  0.39100  0.71450  Biso   1.000  C 
  C129     1.0000 0.84250  0.15360  0.17450  Biso   1.000  C 
  C130     1.0000 0.15750  0.15360  0.32550  Biso   1.000  C 
  C131     1.0000 0.34250  0.65360  0.17450  Biso   1.000  C 
  C132     1.0000 0.65750  0.65360  0.32550  Biso   1.000  C 
  C133     1.0000 0.15750  0.84640  0.82550  Biso   1.000  C 
  C134     1.0000 0.84250  0.84640  0.67450  Biso   1.000  C 
  C135     1.0000 0.65750  0.34640  0.82550  Biso   1.000  C 
  C136     1.0000 0.34250  0.34640  0.67450  Biso   1.000  C 
  C137     1.0000 0.82770  0.15550  0.08500  Biso   1.000  C 
  C138     1.0000 0.17230  0.15550  0.41500  Biso   1.000  C 
  C139     1.0000 0.32770  0.65550  0.08500  Biso   1.000  C 
  C140     1.0000 0.67230  0.65550  0.41500  Biso   1.000  C 
  C141     1.0000 0.17230  0.84450  0.91500  Biso   1.000  C 
  C142     1.0000 0.82770  0.84450  0.58500  Biso   1.000  C 
  C143     1.0000 0.67230  0.34450  0.91500  Biso   1.000  C 
  C144     1.0000 0.32770  0.34450  0.58500  Biso   1.000  C 
  C145     1.0000 0.85400  0.11200  0.04030  Biso   1.000  C 
  C146     1.0000 0.14600  0.11200  0.45970  Biso   1.000  C 
  C147     1.0000 0.35400  0.61200  0.04030  Biso   1.000  C 
  C148     1.0000 0.64600  0.61200  0.45970  Biso   1.000  C 
  C149     1.0000 0.14600  0.88800  0.95970  Biso   1.000  C 
  C150     1.0000 0.85400  0.88800  0.54030  Biso   1.000  C 
  C151     1.0000 0.64600  0.38800  0.95970  Biso   1.000  C 
  C152     1.0000 0.35400  0.38800  0.54030  Biso   1.000  C 
  C153     1.0000 0.89640  0.06980  0.08530  Biso   1.000  C 
  C154     1.0000 0.10360  0.06980  0.41470  Biso   1.000  C 
  C155     1.0000 0.39640  0.56980  0.08530  Biso   1.000  C 
  C156     1.0000 0.60360  0.56980  0.41470  Biso   1.000  C 
  C157     1.0000 0.10360  0.93020  0.91470  Biso   1.000  C 
  C158     1.0000 0.89640  0.93020  0.58530  Biso   1.000  C 
  C159     1.0000 0.60360  0.43020  0.91470  Biso   1.000  C 
  C160     1.0000 0.39640  0.43020  0.58530  Biso   1.000  C 
  C161     1.0000 0.78810  0.20370  0.04060  Biso   1.000  C 
  C162     1.0000 0.21190  0.20370  0.45940  Biso   1.000  C 
  C163     1.0000 0.28810  0.70370  0.04060  Biso   1.000  C 
  C164     1.0000 0.71190  0.70370  0.45940  Biso   1.000  C 
  C165     1.0000 0.21190  0.79630  0.95940  Biso   1.000  C 
  C166     1.0000 0.78810  0.79630  0.54060  Biso   1.000  C 
  C167     1.0000 0.71190  0.29630  0.95940  Biso   1.000  C 
  C168     1.0000 0.28810  0.29630  0.54060  Biso   1.000  C 
  C169     1.0000 0.85430  0.24540  0.03030  Biso   1.000  C 
  C170     1.0000 0.14570  0.24540  0.46970  Biso   1.000  C 
  C171     1.0000 0.35430  0.74540  0.03030  Biso   1.000  C 
  C172     1.0000 0.64570  0.74540  0.46970  Biso   1.000  C 
  C173     1.0000 0.14570  0.75460  0.96970  Biso   1.000  C 
  C174     1.0000 0.85430  0.75460  0.53030  Biso   1.000  C 
  C175     1.0000 0.64570  0.25460  0.96970  Biso   1.000  C 
  C176     1.0000 0.35430  0.25460  0.53030  Biso   1.000  C 
  C177     1.0000 0.68430  0.20790  0.01130  Biso   1.000  C 
  C178     1.0000 0.31570  0.20790  0.48870  Biso   1.000  C 
  C179     1.0000 0.18430  0.70790  0.01130  Biso   1.000  C 
  C180     1.0000 0.81570  0.70790  0.48870  Biso   1.000  C 
  C181     1.0000 0.31570  0.79210  0.98870  Biso   1.000  C 
  C182     1.0000 0.68430  0.79210  0.51130  Biso   1.000  C 
  C183     1.0000 0.81570  0.29210  0.98870  Biso   1.000  C 
  C184     1.0000 0.18430  0.29210  0.51130  Biso   1.000  C 
  C185     1.0000 0.96000  0.24300  0.06060  Biso   1.000  C 
  C186     1.0000 0.04000  0.24300  0.43940  Biso   1.000  C 
  C187     1.0000 0.46000  0.74300  0.06060  Biso   1.000  C 
  C188     1.0000 0.54000  0.74300  0.43940  Biso   1.000  C 
  C189     1.0000 0.04000  0.75700  0.93940  Biso   1.000  C 
  C190     1.0000 0.96000  0.75700  0.56060  Biso   1.000  C 
  C191     1.0000 0.54000  0.25700  0.93940  Biso   1.000  C 
  C192     1.0000 0.46000  0.25700  0.56060  Biso   1.000  C 
  C193     1.0000 0.02200  0.28340  0.04940  Biso   1.000  C 
  C194     1.0000 0.97800  0.28340  0.45060  Biso   1.000  C 
  C195     1.0000 0.52200  0.78340  0.04940  Biso   1.000  C 
  C196     1.0000 0.47800  0.78340  0.45060  Biso   1.000  C 
  C197     1.0000 0.97800  0.71660  0.95060  Biso   1.000  C 
  C198     1.0000 0.02200  0.71660  0.54940  Biso   1.000  C 
  C199     1.0000 0.47800  0.21660  0.95060  Biso   1.000  C 
  C200     1.0000 0.52200  0.21660  0.54940  Biso   1.000  C 
  C201     1.0000 0.61520  0.16680  0.02200  Biso   1.000  C 
  C202     1.0000 0.38480  0.16680  0.47800  Biso   1.000  C 
  C203     1.0000 0.11520  0.66680  0.02200  Biso   1.000  C 
  C204     1.0000 0.88480  0.66680  0.47800  Biso   1.000  C 
  C205     1.0000 0.38480  0.83320  0.97800  Biso   1.000  C 
  C206     1.0000 0.61520  0.83320  0.52200  Biso   1.000  C 
  C207     1.0000 0.88480  0.33320  0.97800  Biso   1.000  C 
  C208     1.0000 0.11520  0.33320  0.52200  Biso   1.000  C 
  C209     1.0000 0.98440  0.32890  0.00740  Biso   1.000  C 
  C210     1.0000 0.01560  0.32890  0.49260  Biso   1.000  C 
  C211     1.0000 0.48440  0.82890  0.00740  Biso   1.000  C 
  C212     1.0000 0.51560  0.82890  0.49260  Biso   1.000  C 
  C213     1.0000 0.01560  0.67110  0.99260  Biso   1.000  C 
  C214     1.0000 0.98440  0.67110  0.50740  Biso   1.000  C 
  C215     1.0000 0.51560  0.17110  0.99260  Biso   1.000  C 
  C216     1.0000 0.48440  0.17110  0.50740  Biso   1.000  C 
  H1       1.0000 0.04990  0.89950  0.14640  Biso   1.000  H 
  H2       1.0000 0.95010  0.89950  0.35360  Biso   1.000  H 
  H3       1.0000 0.54990  0.39950  0.14640  Biso   1.000  H 
  H4       1.0000 0.45010  0.39950  0.35360  Biso   1.000  H 
  H5       1.0000 0.95010  0.10050  0.85360  Biso   1.000  H 
  H6       1.0000 0.04990  0.10050  0.64640  Biso   1.000  H 
  H7       1.0000 0.45010  0.60050  0.85360  Biso   1.000  H 
  H8       1.0000 0.54990  0.60050  0.64640  Biso   1.000  H 
  H9       1.0000 0.98560  0.82470  0.07940  Biso   1.000  H 
  H10      1.0000 0.01440  0.82470  0.42060  Biso   1.000  H 
  H11      1.0000 0.48560  0.32470  0.07940  Biso   1.000  H 
  H12      1.0000 0.51440  0.32470  0.42060  Biso   1.000  H 
  H13      1.0000 0.01440  0.17530  0.92060  Biso   1.000  H 
  H14      1.0000 0.98560  0.17530  0.57940  Biso   1.000  H 
  H15      1.0000 0.51440  0.67530  0.92060  Biso   1.000  H 
  H16      1.0000 0.48560  0.67530  0.57940  Biso   1.000  H 
  H17      1.0000 0.70580  0.87840  0.10450  Biso   1.000  H 
  H18      1.0000 0.29420  0.87840  0.39550  Biso   1.000  H 
  H19      1.0000 0.20580  0.37840  0.10450  Biso   1.000  H 
  H20      1.0000 0.79420  0.37840  0.39550  Biso   1.000  H 
  H21      1.0000 0.29420  0.12160  0.89550  Biso   1.000  H 
  H22      1.0000 0.70580  0.12160  0.60450  Biso   1.000  H 
  H23      1.0000 0.79420  0.62160  0.89550  Biso   1.000  H 
  H24      1.0000 0.20580  0.62160  0.60450  Biso   1.000  H 
  H25      1.0000 0.77830  0.95120  0.17250  Biso   1.000  H 
  H26      1.0000 0.22170  0.95120  0.32750  Biso   1.000  H 
  H27      1.0000 0.27830  0.45120  0.17250  Biso   1.000  H 
  H28      1.0000 0.72170  0.45120  0.32750  Biso   1.000  H 
  H29      1.0000 0.22170  0.04880  0.82750  Biso   1.000  H 
  H30      1.0000 0.77830  0.04880  0.67250  Biso   1.000  H 
  H31      1.0000 0.72170  0.54880  0.82750  Biso   1.000  H 
  H32      1.0000 0.27830  0.54880  0.67250  Biso   1.000  H 
  H33      1.0000 0.76300  0.87720  0.93640  Biso   1.000  H 
  H34      1.0000 0.23700  0.87720  0.56360  Biso   1.000  H 
  H35      1.0000 0.26300  0.37720  0.93640  Biso   1.000  H 
  H36      1.0000 0.73700  0.37720  0.56360  Biso   1.000  H 
  H37      1.0000 0.23700  0.12280  0.06360  Biso   1.000  H 
  H38      1.0000 0.76300  0.12280  0.43640  Biso   1.000  H 
  H39      1.0000 0.73700  0.62280  0.06360  Biso   1.000  H 
  H40      1.0000 0.26300  0.62280  0.43640  Biso   1.000  H 
  H41      1.0000 0.67480  0.88230  0.80190  Biso   1.000  H 
  H42      1.0000 0.32520  0.88230  0.69810  Biso   1.000  H 
  H43      1.0000 0.17480  0.38230  0.80190  Biso   1.000  H 
  H44      1.0000 0.82520  0.38230  0.69810  Biso   1.000  H 
  H45      1.0000 0.32520  0.11770  0.19810  Biso   1.000  H 
  H46      1.0000 0.67480  0.11770  0.30190  Biso   1.000  H 
  H47      1.0000 0.82520  0.61770  0.19810  Biso   1.000  H 
  H48      1.0000 0.17480  0.61770  0.30190  Biso   1.000  H 
  H49      1.0000 0.60120  0.80730  0.73420  Biso   1.000  H 
  H50      1.0000 0.39880  0.80730  0.76580  Biso   1.000  H 
  H51      1.0000 0.10120  0.30730  0.73420  Biso   1.000  H 
  H52      1.0000 0.89880  0.30730  0.76580  Biso   1.000  H 
  H53      1.0000 0.39880  0.19270  0.26580  Biso   1.000  H 
  H54      1.0000 0.60120  0.19270  0.23420  Biso   1.000  H 
  H55      1.0000 0.89880  0.69270  0.26580  Biso   1.000  H 
  H56      1.0000 0.10120  0.69270  0.23420  Biso   1.000  H 
  H57      1.0000 0.88270  0.77170  0.19930  Biso   1.000  H 
  H58      1.0000 0.11730  0.77170  0.30070  Biso   1.000  H 
  H59      1.0000 0.38270  0.27170  0.19930  Biso   1.000  H 
  H60      1.0000 0.61730  0.27170  0.30070  Biso   1.000  H 
  H61      1.0000 0.11730  0.22830  0.80070  Biso   1.000  H 
  H62      1.0000 0.88270  0.22830  0.69930  Biso   1.000  H 
  H63      1.0000 0.61730  0.72830  0.80070  Biso   1.000  H 
  H64      1.0000 0.38270  0.72830  0.69930  Biso   1.000  H 
  H65      1.0000 0.88900  0.10760  0.27570  Biso   1.000  H 
  H66      1.0000 0.11100  0.10760  0.22430  Biso   1.000  H 
  H67      1.0000 0.38900  0.60760  0.27570  Biso   1.000  H 
  H68      1.0000 0.61100  0.60760  0.22430  Biso   1.000  H 
  H69      1.0000 0.11100  0.89240  0.72430  Biso   1.000  H 
  H70      1.0000 0.88900  0.89240  0.77570  Biso   1.000  H 
  H71      1.0000 0.61100  0.39240  0.72430  Biso   1.000  H 
  H72      1.0000 0.38900  0.39240  0.77570  Biso   1.000  H 
  H73      1.0000 0.82570  0.18260  0.20770  Biso   1.000  H 
  H74      1.0000 0.17430  0.18260  0.29230  Biso   1.000  H 
  H75      1.0000 0.32570  0.68260  0.20770  Biso   1.000  H 
  H76      1.0000 0.67430  0.68260  0.29230  Biso   1.000  H 
  H77      1.0000 0.17430  0.81740  0.79230  Biso   1.000  H 
  H78      1.0000 0.82570  0.81740  0.70770  Biso   1.000  H 
  H79      1.0000 0.67430  0.31740  0.79230  Biso   1.000  H 
  H80      1.0000 0.32570  0.31740  0.70770  Biso   1.000  H 
  H81      1.0000 0.84310  0.11130  0.97910  Biso   1.000  H 
  H82      1.0000 0.15690  0.11130  0.52090  Biso   1.000  H 
  H83      1.0000 0.34310  0.61130  0.97910  Biso   1.000  H 
  H84      1.0000 0.65690  0.61130  0.52090  Biso   1.000  H 
  H85      1.0000 0.15690  0.88870  0.02090  Biso   1.000  H 
  H86      1.0000 0.84310  0.88870  0.47910  Biso   1.000  H 
  H87      1.0000 0.65690  0.38870  0.02090  Biso   1.000  H 
  H88      1.0000 0.34310  0.38870  0.47910  Biso   1.000  H 
  H89      1.0000 0.91660  0.04080  0.05380  Biso   1.000  H 
  H90      1.0000 0.08340  0.04080  0.44620  Biso   1.000  H 
  H91      1.0000 0.41660  0.54080  0.05380  Biso   1.000  H 
  H92      1.0000 0.58340  0.54080  0.44620  Biso   1.000  H 
  H93      1.0000 0.08340  0.95920  0.94620  Biso   1.000  H 
  H94      1.0000 0.91660  0.95920  0.55380  Biso   1.000  H 
  H95      1.0000 0.58340  0.45920  0.94620  Biso   1.000  H 
  H96      1.0000 0.41660  0.45920  0.55380  Biso   1.000  H 
  H97      1.0000 0.98680  0.21250  0.08890  Biso   1.000  H 
  H98      1.0000 0.01320  0.21250  0.41110  Biso   1.000  H 
  H99      1.0000 0.48680  0.71250  0.08890  Biso   1.000  H 
  H100     1.0000 0.51320  0.71250  0.41110  Biso   1.000  H 
  H101     1.0000 0.01320  0.78750  0.91110  Biso   1.000  H 
  H102     1.0000 0.98680  0.78750  0.58890  Biso   1.000  H 
  H103     1.0000 0.51320  0.28750  0.91110  Biso   1.000  H 
  H104     1.0000 0.48680  0.28750  0.58890  Biso   1.000  H 
  H105     1.0000 0.09170  0.28110  0.07020  Biso   1.000  H 
  H106     1.0000 0.90830  0.28110  0.42980  Biso   1.000  H 
  H107     1.0000 0.59170  0.78110  0.07020  Biso   1.000  H 
  H108     1.0000 0.40830  0.78110  0.42980  Biso   1.000  H 
  H109     1.0000 0.90830  0.71890  0.92980  Biso   1.000  H 
  H110     1.0000 0.09170  0.71890  0.57020  Biso   1.000  H 
  H111     1.0000 0.40830  0.21890  0.92980  Biso   1.000  H 
  H112     1.0000 0.59170  0.21890  0.57020  Biso   1.000  H 
  H113     1.0000 0.63920  0.13570  0.05030  Biso   1.000  H 
  H114     1.0000 0.36080  0.13570  0.44970  Biso   1.000  H 
  H115     1.0000 0.13920  0.63570  0.05030  Biso   1.000  H 
  H116     1.0000 0.86080  0.63570  0.44970  Biso   1.000  H 
  H117     1.0000 0.36080  0.86430  0.94970  Biso   1.000  H 
  H118     1.0000 0.63920  0.86430  0.55030  Biso   1.000  H 
  H119     1.0000 0.86080  0.36430  0.94970  Biso   1.000  H 
  H120     1.0000 0.13920  0.36430  0.55030  Biso   1.000  H 
  H121     1.0000 0.02910  0.35680  0.99950  Biso   1.000  H 
  H122     1.0000 0.97090  0.35680  0.50050  Biso   1.000  H 
  H123     1.0000 0.52910  0.85680  0.99950  Biso   1.000  H 
  H124     1.0000 0.47090  0.85680  0.50050  Biso   1.000  H 
  H125     1.0000 0.97090  0.64320  0.00050  Biso   1.000  H 
  H126     1.0000 0.02910  0.64320  0.49950  Biso   1.000  H 
  H127     1.0000 0.47090  0.14320  0.00050  Biso   1.000  H 
  H128     1.0000 0.52910  0.14320  0.49950  Biso   1.000  H 
  H129     1.0000 0.33962  0.07083  0.69697  Biso   1.000  H 
  H130     1.0000 0.66038  0.07083  0.80303  Biso   1.000  H 
  H131     1.0000 0.83962  0.57083  0.69697  Biso   1.000  H 
  H132     1.0000 0.16038  0.57083  0.80303  Biso   1.000  H 
  H133     1.0000 0.66038  0.92917  0.30303  Biso   1.000  H 
  H134     1.0000 0.33962  0.92917  0.19697  Biso   1.000  H 
  H135     1.0000 0.16038  0.42917  0.30303  Biso   1.000  H 
  H136     1.0000 0.83962  0.42917  0.19697  Biso   1.000  H 
  H137     1.0000 0.50000  0.01820  0.75000  Biso   1.000  H 
  H138     1.0000 0.00000  0.51820  0.75000  Biso   1.000  H 
  H139     1.0000 0.50000  0.98180  0.25000  Biso   1.000  H 
  H140     1.0000 0.00000  0.48180  0.25000  Biso   1.000  H 
  H141     1.0000 0.50000  0.21110  0.75000  Biso   1.000  H 
  H142     1.0000 0.00000  0.71110  0.75000  Biso   1.000  H 
  H143     1.0000 0.50000  0.78890  0.25000  Biso   1.000  H 
  H144     1.0000 0.00000  0.28890  0.25000  Biso   1.000  H 
