data_image0
_cell_length_a       13.578
_cell_length_b       21.049
_cell_length_c       8.517
_cell_angle_alpha    90
_cell_angle_beta     90
_cell_angle_gamma    90

_symmetry_space_group_name_H-M    "P 1"
_symmetry_int_tables_number       1

loop_
  _symmetry_equiv_pos_as_xyz
  'x, y, z'

loop_
  _atom_site_label
  _atom_site_occupancy
  _atom_site_fract_x
  _atom_site_fract_y
  _atom_site_fract_z
  _atom_site_thermal_displace_type
  _atom_site_B_iso_or_equiv
  _atom_site_type_symbol
  Zn1      1.0000 0.00000  0.00000  0.36105  Biso   1.000  Zn
  Zn2      1.0000 0.50000  0.50000  0.36105  Biso   1.000  Zn
  Zn3      1.0000 0.00000  0.50000  0.86105  Biso   1.000  Zn
  Zn4      1.0000 0.50000  0.00000  0.86105  Biso   1.000  Zn
  C1       1.0000 0.43630  0.59150  0.19100  Biso   1.000  C 
  C2       1.0000 0.56370  0.40850  0.19100  Biso   1.000  C 
  C3       1.0000 0.06370  0.09150  0.19100  Biso   1.000  C 
  C4       1.0000 0.93630  0.90850  0.19100  Biso   1.000  C 
  C5       1.0000 0.43630  0.09150  0.69100  Biso   1.000  C 
  C6       1.0000 0.56370  0.90850  0.69100  Biso   1.000  C 
  C7       1.0000 0.06370  0.59150  0.69100  Biso   1.000  C 
  C8       1.0000 0.93630  0.40850  0.69100  Biso   1.000  C 
  C9       1.0000 0.28530  0.73380  0.92910  Biso   1.000  C 
  C10      1.0000 0.71470  0.26620  0.92910  Biso   1.000  C 
  C11      1.0000 0.21470  0.23380  0.92910  Biso   1.000  C 
  C12      1.0000 0.78530  0.76620  0.92910  Biso   1.000  C 
  C13      1.0000 0.28530  0.23380  0.42910  Biso   1.000  C 
  C14      1.0000 0.71470  0.76620  0.42910  Biso   1.000  C 
  C15      1.0000 0.21470  0.73380  0.42910  Biso   1.000  C 
  C16      1.0000 0.78530  0.26620  0.42910  Biso   1.000  C 
  C17      1.0000 0.28260  0.82583  0.76560  Biso   1.000  C 
  C18      1.0000 0.71740  0.17417  0.76560  Biso   1.000  C 
  C19      1.0000 0.21740  0.32583  0.76560  Biso   1.000  C 
  C20      1.0000 0.78260  0.67417  0.76560  Biso   1.000  C 
  C21      1.0000 0.28260  0.32583  0.26560  Biso   1.000  C 
  C22      1.0000 0.71740  0.67417  0.26560  Biso   1.000  C 
  C23      1.0000 0.21740  0.82583  0.26560  Biso   1.000  C 
  C24      1.0000 0.78260  0.17417  0.26560  Biso   1.000  C 
  H1       1.0000 0.32300  0.80520  0.68680  Biso   1.000  H 
  H2       1.0000 0.67700  0.19480  0.68680  Biso   1.000  H 
  H3       1.0000 0.17700  0.30520  0.68680  Biso   1.000  H 
  H4       1.0000 0.82300  0.69480  0.68680  Biso   1.000  H 
  H5       1.0000 0.32300  0.30520  0.18680  Biso   1.000  H 
  H6       1.0000 0.67700  0.69480  0.18680  Biso   1.000  H 
  H7       1.0000 0.17700  0.80520  0.18680  Biso   1.000  H 
  H8       1.0000 0.82300  0.19480  0.18680  Biso   1.000  H 
  H9       1.0000 0.32540  0.84980  0.83490  Biso   1.000  H 
  H10      1.0000 0.67460  0.15020  0.83490  Biso   1.000  H 
  H11      1.0000 0.17460  0.34980  0.83490  Biso   1.000  H 
  H12      1.0000 0.82540  0.65020  0.83490  Biso   1.000  H 
  H13      1.0000 0.32540  0.34980  0.33490  Biso   1.000  H 
  H14      1.0000 0.67460  0.65020  0.33490  Biso   1.000  H 
  H15      1.0000 0.17460  0.84980  0.33490  Biso   1.000  H 
  H16      1.0000 0.82540  0.15020  0.33490  Biso   1.000  H 
  O1       1.0000 0.22918  0.77953  0.85300  Biso   1.000  O 
  O2       1.0000 0.77082  0.22047  0.85300  Biso   1.000  O 
  O3       1.0000 0.27082  0.27953  0.85300  Biso   1.000  O 
  O4       1.0000 0.72918  0.72047  0.85300  Biso   1.000  O 
  O5       1.0000 0.22918  0.27953  0.35300  Biso   1.000  O 
  O6       1.0000 0.77082  0.72047  0.35300  Biso   1.000  O 
  O7       1.0000 0.27082  0.77953  0.35300  Biso   1.000  O 
  O8       1.0000 0.72918  0.22047  0.35300  Biso   1.000  O 
  C25      1.0000 0.28040  0.64315  0.09800  Biso   1.000  C 
  C26      1.0000 0.71960  0.35685  0.09800  Biso   1.000  C 
  C27      1.0000 0.21960  0.14315  0.09800  Biso   1.000  C 
  C28      1.0000 0.78040  0.85685  0.09800  Biso   1.000  C 
  C29      1.0000 0.28040  0.14315  0.59800  Biso   1.000  C 
  C30      1.0000 0.71960  0.85685  0.59800  Biso   1.000  C 
  C31      1.0000 0.21960  0.64315  0.59800  Biso   1.000  C 
  C32      1.0000 0.78040  0.35685  0.59800  Biso   1.000  C 
  H17      1.0000 0.24460  0.61360  0.15550  Biso   1.000  H 
  H18      1.0000 0.75540  0.38640  0.15550  Biso   1.000  H 
  H19      1.0000 0.25540  0.11360  0.15550  Biso   1.000  H 
  H20      1.0000 0.74460  0.88640  0.15550  Biso   1.000  H 
  H21      1.0000 0.24460  0.11360  0.65550  Biso   1.000  H 
  H22      1.0000 0.75540  0.88640  0.65550  Biso   1.000  H 
  H23      1.0000 0.25540  0.61360  0.65550  Biso   1.000  H 
  H24      1.0000 0.74460  0.38640  0.65550  Biso   1.000  H 
  N1       1.0000 0.08540  0.95008  0.51960  Biso   1.000  N 
  N2       1.0000 0.91460  0.04992  0.51960  Biso   1.000  N 
  N3       1.0000 0.41460  0.45008  0.51960  Biso   1.000  N 
  N4       1.0000 0.58540  0.54992  0.51960  Biso   1.000  N 
  N5       1.0000 0.08540  0.45008  0.01960  Biso   1.000  N 
  N6       1.0000 0.91460  0.54992  0.01960  Biso   1.000  N 
  N7       1.0000 0.41460  0.95008  0.01960  Biso   1.000  N 
  N8       1.0000 0.58540  0.04992  0.01960  Biso   1.000  N 
  C33      1.0000 0.24650  0.92319  0.61350  Biso   1.000  C 
  C34      1.0000 0.75350  0.07681  0.61350  Biso   1.000  C 
  C35      1.0000 0.25350  0.42319  0.61350  Biso   1.000  C 
  C36      1.0000 0.74650  0.57681  0.61350  Biso   1.000  C 
  C37      1.0000 0.24650  0.42319  0.11350  Biso   1.000  C 
  C38      1.0000 0.75350  0.57681  0.11350  Biso   1.000  C 
  C39      1.0000 0.25350  0.92319  0.11350  Biso   1.000  C 
  C40      1.0000 0.74650  0.07681  0.11350  Biso   1.000  C 
  H25      1.0000 0.31320  0.93290  0.61910  Biso   1.000  H 
  H26      1.0000 0.68680  0.06710  0.61910  Biso   1.000  H 
  H27      1.0000 0.18680  0.43290  0.61910  Biso   1.000  H 
  H28      1.0000 0.81320  0.56710  0.61910  Biso   1.000  H 
  H29      1.0000 0.31320  0.43290  0.11910  Biso   1.000  H 
  H30      1.0000 0.68680  0.56710  0.11910  Biso   1.000  H 
  H31      1.0000 0.18680  0.93290  0.11910  Biso   1.000  H 
  H32      1.0000 0.81320  0.06710  0.11910  Biso   1.000  H 
  C41      1.0000 0.38340  0.64049  0.09800  Biso   1.000  C 
  C42      1.0000 0.61660  0.35951  0.09800  Biso   1.000  C 
  C43      1.0000 0.11660  0.14049  0.09800  Biso   1.000  C 
  C44      1.0000 0.88340  0.85951  0.09800  Biso   1.000  C 
  C45      1.0000 0.38340  0.14049  0.59800  Biso   1.000  C 
  C46      1.0000 0.61660  0.85951  0.59800  Biso   1.000  C 
  C47      1.0000 0.11660  0.64049  0.59800  Biso   1.000  C 
  C48      1.0000 0.88340  0.35951  0.59800  Biso   1.000  C 
  C49      1.0000 0.10970  0.85806  0.68150  Biso   1.000  C 
  C50      1.0000 0.89030  0.14194  0.68150  Biso   1.000  C 
  C51      1.0000 0.39030  0.35806  0.68150  Biso   1.000  C 
  C52      1.0000 0.60970  0.64194  0.68150  Biso   1.000  C 
  C53      1.0000 0.10970  0.35806  0.18150  Biso   1.000  C 
  C54      1.0000 0.89030  0.64194  0.18150  Biso   1.000  C 
  C55      1.0000 0.39030  0.85806  0.18150  Biso   1.000  C 
  C56      1.0000 0.60970  0.14194  0.18150  Biso   1.000  C 
  H33      1.0000 0.08250  0.82330  0.73300  Biso   1.000  H 
  H34      1.0000 0.91750  0.17670  0.73300  Biso   1.000  H 
  H35      1.0000 0.41750  0.32330  0.73300  Biso   1.000  H 
  H36      1.0000 0.58250  0.67670  0.73300  Biso   1.000  H 
  H37      1.0000 0.08250  0.32330  0.23300  Biso   1.000  H 
  H38      1.0000 0.91750  0.67670  0.23300  Biso   1.000  H 
  H39      1.0000 0.41750  0.82330  0.23300  Biso   1.000  H 
  H40      1.0000 0.58250  0.17670  0.23300  Biso   1.000  H 
  O9       1.0000 0.38980  0.55549  0.28100  Biso   1.000  O 
  O10      1.0000 0.61020  0.44451  0.28100  Biso   1.000  O 
  O11      1.0000 0.11020  0.05549  0.28100  Biso   1.000  O 
  O12      1.0000 0.88980  0.94451  0.28100  Biso   1.000  O 
  O13      1.0000 0.38980  0.05549  0.78100  Biso   1.000  O 
  O14      1.0000 0.61020  0.94451  0.78100  Biso   1.000  O 
  O15      1.0000 0.11020  0.55549  0.78100  Biso   1.000  O 
  O16      1.0000 0.88980  0.44451  0.78100  Biso   1.000  O 
  O17      1.0000 0.52700  0.58650  0.17950  Biso   1.000  O 
  O18      1.0000 0.47300  0.41350  0.17950  Biso   1.000  O 
  O19      1.0000 0.97300  0.08650  0.17950  Biso   1.000  O 
  O20      1.0000 0.02700  0.91350  0.17950  Biso   1.000  O 
  O21      1.0000 0.52700  0.08650  0.67950  Biso   1.000  O 
  O22      1.0000 0.47300  0.91350  0.67950  Biso   1.000  O 
  O23      1.0000 0.97300  0.58650  0.67950  Biso   1.000  O 
  O24      1.0000 0.02700  0.41350  0.67950  Biso   1.000  O 
  C57      1.0000 0.43440  0.68360  0.00890  Biso   1.000  C 
  C58      1.0000 0.56560  0.31640  0.00890  Biso   1.000  C 
  C59      1.0000 0.06560  0.18360  0.00890  Biso   1.000  C 
  C60      1.0000 0.93440  0.81640  0.00890  Biso   1.000  C 
  C61      1.0000 0.43440  0.18360  0.50890  Biso   1.000  C 
  C62      1.0000 0.56560  0.81640  0.50890  Biso   1.000  C 
  C63      1.0000 0.06560  0.68360  0.50890  Biso   1.000  C 
  C64      1.0000 0.93440  0.31640  0.50890  Biso   1.000  C 
  H41      1.0000 0.50280  0.68100  0.00590  Biso   1.000  H 
  H42      1.0000 0.49720  0.31900  0.00590  Biso   1.000  H 
  H43      1.0000 0.99720  0.18100  0.00590  Biso   1.000  H 
  H44      1.0000 0.00280  0.81900  0.00590  Biso   1.000  H 
  H45      1.0000 0.50280  0.18100  0.50590  Biso   1.000  H 
  H46      1.0000 0.49720  0.81900  0.50590  Biso   1.000  H 
  H47      1.0000 0.99720  0.68100  0.50590  Biso   1.000  H 
  H48      1.0000 0.00280  0.31900  0.50590  Biso   1.000  H 
  C65      1.0000 0.38810  0.73080  0.92310  Biso   1.000  C 
  C66      1.0000 0.61190  0.26920  0.92310  Biso   1.000  C 
  C67      1.0000 0.11190  0.23080  0.92310  Biso   1.000  C 
  C68      1.0000 0.88810  0.76920  0.92310  Biso   1.000  C 
  C69      1.0000 0.38810  0.23080  0.42310  Biso   1.000  C 
  C70      1.0000 0.61190  0.76920  0.42310  Biso   1.000  C 
  C71      1.0000 0.11190  0.73080  0.42310  Biso   1.000  C 
  C72      1.0000 0.88810  0.26920  0.42310  Biso   1.000  C 
  H49      1.0000 0.42420  0.75960  0.86350  Biso   1.000  H 
  H50      1.0000 0.57580  0.24040  0.86350  Biso   1.000  H 
  H51      1.0000 0.07580  0.25960  0.86350  Biso   1.000  H 
  H52      1.0000 0.92420  0.74040  0.86350  Biso   1.000  H 
  H53      1.0000 0.42420  0.25960  0.36350  Biso   1.000  H 
  H54      1.0000 0.57580  0.74040  0.36350  Biso   1.000  H 
  H55      1.0000 0.07580  0.75960  0.36350  Biso   1.000  H 
  H56      1.0000 0.92420  0.24040  0.36350  Biso   1.000  H 
  C73      1.0000 0.20900  0.86988  0.68760  Biso   1.000  C 
  C74      1.0000 0.79100  0.13012  0.68760  Biso   1.000  C 
  C75      1.0000 0.29100  0.36988  0.68760  Biso   1.000  C 
  C76      1.0000 0.70900  0.63012  0.68760  Biso   1.000  C 
  C77      1.0000 0.20900  0.36988  0.18760  Biso   1.000  C 
  C78      1.0000 0.79100  0.63012  0.18760  Biso   1.000  C 
  C79      1.0000 0.29100  0.86988  0.18760  Biso   1.000  C 
  C80      1.0000 0.70900  0.13012  0.18760  Biso   1.000  C 
  C81      1.0000 0.23160  0.68945  0.01310  Biso   1.000  C 
  C82      1.0000 0.76840  0.31055  0.01310  Biso   1.000  C 
  C83      1.0000 0.26840  0.18945  0.01310  Biso   1.000  C 
  C84      1.0000 0.73160  0.81055  0.01310  Biso   1.000  C 
  C85      1.0000 0.23160  0.18945  0.51310  Biso   1.000  C 
  C86      1.0000 0.76840  0.81055  0.51310  Biso   1.000  C 
  C87      1.0000 0.26840  0.68945  0.51310  Biso   1.000  C 
  C88      1.0000 0.73160  0.31055  0.51310  Biso   1.000  C 
  H57      1.0000 0.16310  0.69080  0.01250  Biso   1.000  H 
  H58      1.0000 0.83690  0.30920  0.01250  Biso   1.000  H 
  H59      1.0000 0.33690  0.19080  0.01250  Biso   1.000  H 
  H60      1.0000 0.66310  0.80920  0.01250  Biso   1.000  H 
  H61      1.0000 0.16310  0.19080  0.51250  Biso   1.000  H 
  H62      1.0000 0.83690  0.80920  0.51250  Biso   1.000  H 
  H63      1.0000 0.33690  0.69080  0.51250  Biso   1.000  H 
  H64      1.0000 0.66310  0.30920  0.51250  Biso   1.000  H 
  C89      1.0000 0.18170  0.96210  0.53030  Biso   1.000  C 
  C90      1.0000 0.81830  0.03790  0.53030  Biso   1.000  C 
  C91      1.0000 0.31830  0.46210  0.53030  Biso   1.000  C 
  C92      1.0000 0.68170  0.53790  0.53030  Biso   1.000  C 
  C93      1.0000 0.18170  0.46210  0.03030  Biso   1.000  C 
  C94      1.0000 0.81830  0.53790  0.03030  Biso   1.000  C 
  C95      1.0000 0.31830  0.96210  0.03030  Biso   1.000  C 
  C96      1.0000 0.68170  0.03790  0.03030  Biso   1.000  C 
  H65      1.0000 0.20670  0.99780  0.48020  Biso   1.000  H 
  H66      1.0000 0.79330  0.00220  0.48020  Biso   1.000  H 
  H67      1.0000 0.29330  0.49780  0.48020  Biso   1.000  H 
  H68      1.0000 0.70670  0.50220  0.48020  Biso   1.000  H 
  H69      1.0000 0.20670  0.49780  0.98020  Biso   1.000  H 
  H70      1.0000 0.79330  0.50220  0.98020  Biso   1.000  H 
  H71      1.0000 0.29330  0.99780  0.98020  Biso   1.000  H 
  H72      1.0000 0.70670  0.00220  0.98020  Biso   1.000  H 
  C97      1.0000 0.05100  0.89970  0.59580  Biso   1.000  C 
  C98      1.0000 0.94900  0.10030  0.59580  Biso   1.000  C 
  C99      1.0000 0.44900  0.39970  0.59580  Biso   1.000  C 
  C100     1.0000 0.55100  0.60030  0.59580  Biso   1.000  C 
  C101     1.0000 0.05100  0.39970  0.09580  Biso   1.000  C 
  C102     1.0000 0.94900  0.60030  0.09580  Biso   1.000  C 
  C103     1.0000 0.44900  0.89970  0.09580  Biso   1.000  C 
  C104     1.0000 0.55100  0.10030  0.09580  Biso   1.000  C 
  H73      1.0000 0.98370  0.89180  0.59170  Biso   1.000  H 
  H74      1.0000 0.01630  0.10820  0.59170  Biso   1.000  H 
  H75      1.0000 0.51630  0.39180  0.59170  Biso   1.000  H 
  H76      1.0000 0.48370  0.60820  0.59170  Biso   1.000  H 
  H77      1.0000 0.98370  0.39180  0.09170  Biso   1.000  H 
  H78      1.0000 0.01630  0.60820  0.09170  Biso   1.000  H 
  H79      1.0000 0.51630  0.89180  0.09170  Biso   1.000  H 
  H80      1.0000 0.48370  0.10820  0.09170  Biso   1.000  H 
