data_image0
_cell_length_a       9.389
_cell_length_b       10.442
_cell_length_c       15.507
_cell_angle_alpha    77.828
_cell_angle_beta     75.57
_cell_angle_gamma    84.742

_symmetry_space_group_name_H-M    "P 1"
_symmetry_int_tables_number       1

loop_
  _symmetry_equiv_pos_as_xyz
  'x, y, z'

loop_
  _atom_site_label
  _atom_site_occupancy
  _atom_site_fract_x
  _atom_site_fract_y
  _atom_site_fract_z
  _atom_site_thermal_displace_type
  _atom_site_B_iso_or_equiv
  _atom_site_type_symbol
  Cd1      1.0000 0.50000  0.50000  0.00000  Biso   1.000  Cd
  O1       1.0000 0.34920  0.32430  0.02100  Biso   1.000  O 
  C1       1.0000 0.33760  0.21210  0.03790  Biso   1.000  C 
  H1       1.0000 0.42560  0.16370  0.03860  Biso   1.000  H 
  N1       1.0000 0.22250  0.14200  0.05610  Biso   1.000  N 
  C2       1.0000 0.08220  0.20930  0.04710  Biso   1.000  C 
  H2       1.0000 0.00650  0.14660  0.06480  Biso   1.000  H 
  H3       1.0000 0.05830  0.27300  0.08550  Biso   1.000  H 
  H4       1.0000 0.08960  0.25240  0.98510  Biso   1.000  H 
  C3       1.0000 0.22860  0.00080  0.07370  Biso   1.000  C 
  H5       1.0000 0.13080  0.96980  0.08750  Biso   1.000  H 
  H6       1.0000 0.27220  0.96800  0.12430  Biso   1.000  H 
  H7       1.0000 0.28690  0.97050  0.02100  Biso   1.000  H 
  N2       1.0000 0.31350  0.59010  0.10190  Biso   1.000  N 
  C4       1.0000 0.16850  0.58250  0.10550  Biso   1.000  C 
  H8       1.0000 0.13260  0.54410  0.06670  Biso   1.000  H 
  C5       1.0000 0.31420  0.65170  0.16620  Biso   1.000  C 
  H9       1.0000 0.39940  0.67180  0.18000  Biso   1.000  H 
  N3       1.0000 0.17780  0.68290  0.21050  Biso   1.000  N 
  C6       1.0000 0.08550  0.63650  0.17110  Biso   1.000  C 
  H10      1.0000 0.98320  0.64170  0.18730  Biso   1.000  H 
  C7       1.0000 0.13980  0.75850  0.28270  Biso   1.000  C 
  C8       1.0000 0.00800  0.82660  0.29480  Biso   1.000  C 
  H11      1.0000 0.94380  0.82590  0.25790  Biso   1.000  H 
  C9       1.0000 0.97240  0.89860  0.36570  Biso   1.000  C 
  H12      1.0000 0.88250  0.94520  0.37630  Biso   1.000  H 
  C10      1.0000 0.06840  0.90060  0.41870  Biso   1.000  C 
  C11      1.0000 0.20060  0.82850  0.40470  Biso   1.000  C 
  H13      1.0000 0.26550  0.82730  0.44140  Biso   1.000  H 
  C12      1.0000 0.23410  0.75940  0.33670  Biso   1.000  C 
  H14      1.0000 0.32330  0.71180  0.32670  Biso   1.000  H 
  N4       1.0000 0.05650  0.97540  0.49910  Biso   1.000  N 
  N5       1.0000 0.94350  0.02460  0.50090  Biso   1.000  N 
  C13      1.0000 0.93160  0.09940  0.58130  Biso   1.000  C 
  C14      1.0000 0.79940  0.17150  0.59530  Biso   1.000  C 
  H15      1.0000 0.73450  0.17270  0.55860  Biso   1.000  H 
  C15      1.0000 0.76590  0.24060  0.66330  Biso   1.000  C 
  H16      1.0000 0.67670  0.28820  0.67330  Biso   1.000  H 
  C16      1.0000 0.86020  0.24150  0.71730  Biso   1.000  C 
  C17      1.0000 0.99200  0.17340  0.70520  Biso   1.000  C 
  C18      1.0000 0.02760  0.10140  0.63430  Biso   1.000  C 
  H17      1.0000 0.11750  0.05480  0.62370  Biso   1.000  H 
  H18      1.0000 0.05620  0.17410  0.74210  Biso   1.000  H 
  N6       1.0000 0.82220  0.31710  0.78950  Biso   1.000  N 
  C19      1.0000 0.91450  0.36350  0.82890  Biso   1.000  C 
  C20      1.0000 0.83150  0.41750  0.89450  Biso   1.000  C 
  H19      1.0000 0.86740  0.45590  0.93330  Biso   1.000  H 
  N7       1.0000 0.68650  0.40990  0.89810  Biso   1.000  N 
  C21      1.0000 0.68580  0.34830  0.83380  Biso   1.000  C 
  H20      1.0000 0.60060  0.32820  0.82000  Biso   1.000  H 
  H21      1.0000 0.01680  0.35830  0.81270  Biso   1.000  H 
  N8       1.0000 0.62300  0.40100  0.11070  Biso   1.000  N 
  C22      1.0000 0.65550  0.26920  0.13380  Biso   1.000  C 
  H22      1.0000 0.63280  0.20520  0.10630  Biso   1.000  H 
  C23      1.0000 0.72450  0.24610  0.20170  Biso   1.000  C 
  H23      1.0000 0.75820  0.16530  0.22960  Biso   1.000  H 
  N9       1.0000 0.73540  0.36830  0.22220  Biso   1.000  N 
  C24      1.0000 0.67350  0.45780  0.16470  Biso   1.000  C 
  H24      1.0000 0.66730  0.54760  0.16330  Biso   1.000  H 
  C25      1.0000 0.80280  0.39470  0.28950  Biso   1.000  C 
  C26      1.0000 0.91720  0.31830  0.31240  Biso   1.000  C 
  H25      1.0000 0.95090  0.24750  0.28410  Biso   1.000  H 
  C27      1.0000 0.98470  0.34130  0.37520  Biso   1.000  C 
  H26      1.0000 0.06330  0.28670  0.38890  Biso   1.000  H 
  C28      1.0000 0.94050  0.43810  0.41570  Biso   1.000  C 
  C29      1.0000 0.82300  0.51850  0.39730  Biso   1.000  C 
  H27      1.0000 0.79030  0.58830  0.42680  Biso   1.000  H 
  C30      1.0000 0.75210  0.49190  0.33140  Biso   1.000  C 
  H28      1.0000 0.67090  0.54330  0.31860  Biso   1.000  H 
  N10      1.0000 0.02630  0.45190  0.48490  Biso   1.000  N 
  N11      1.0000 0.97370  0.54810  0.51510  Biso   1.000  N 
  C31      1.0000 0.05950  0.56190  0.58430  Biso   1.000  C 
  C32      1.0000 0.17700  0.48150  0.60270  Biso   1.000  C 
  H29      1.0000 0.20970  0.41170  0.57320  Biso   1.000  H 
  C33      1.0000 0.24790  0.50810  0.66860  Biso   1.000  C 
  H30      1.0000 0.32910  0.45670  0.68140  Biso   1.000  H 
  C34      1.0000 0.19720  0.60530  0.71050  Biso   1.000  C 
  C35      1.0000 0.08280  0.68170  0.68760  Biso   1.000  C 
  H31      1.0000 0.04910  0.75250  0.71590  Biso   1.000  H 
  C36      1.0000 0.01530  0.65870  0.62480  Biso   1.000  C 
  H32      1.0000 0.93670  0.71330  0.61110  Biso   1.000  H 
  N12      1.0000 0.26460  0.63170  0.77780  Biso   1.000  N 
  C37      1.0000 0.27550  0.75390  0.79830  Biso   1.000  C 
  H33      1.0000 0.24180  0.83470  0.77040  Biso   1.000  H 
  C38      1.0000 0.34450  0.73080  0.86620  Biso   1.000  C 
  H34      1.0000 0.36720  0.79480  0.89370  Biso   1.000  H 
  N13      1.0000 0.37700  0.59900  0.88930  Biso   1.000  N 
  C39      1.0000 0.32650  0.54220  0.83530  Biso   1.000  C 
  H35      1.0000 0.33270  0.45240  0.83670  Biso   1.000  H 
  O2       1.0000 0.65080  0.67570  0.97900  Biso   1.000  O 
  C40      1.0000 0.66240  0.78790  0.96210  Biso   1.000  C 
  H36      1.0000 0.57440  0.83630  0.96140  Biso   1.000  H 
  N14      1.0000 0.77750  0.85800  0.94390  Biso   1.000  N 
  C41      1.0000 0.77140  0.99920  0.92630  Biso   1.000  C 
  H37      1.0000 0.72780  0.03200  0.87570  Biso   1.000  H 
  H38      1.0000 0.71310  0.02950  0.97900  Biso   1.000  H 
  H39      1.0000 0.86920  0.03020  0.91250  Biso   1.000  H 
  C42      1.0000 0.91780  0.79070  0.95290  Biso   1.000  C 
  H40      1.0000 0.94170  0.72700  0.91450  Biso   1.000  H 
  H41      1.0000 0.99350  0.85340  0.93520  Biso   1.000  H 
  H42      1.0000 0.91040  0.74760  0.01490  Biso   1.000  H 
