data_image0
_cell_length_a       12.9634
_cell_length_b       13.1087
_cell_length_c       13.8909
_cell_angle_alpha    85.137
_cell_angle_beta     68.466
_cell_angle_gamma    84.926

_symmetry_space_group_name_H-M    "P 1"
_symmetry_int_tables_number       1

loop_
  _symmetry_equiv_pos_as_xyz
  'x, y, z'

loop_
  _atom_site_label
  _atom_site_occupancy
  _atom_site_fract_x
  _atom_site_fract_y
  _atom_site_fract_z
  _atom_site_thermal_displace_type
  _atom_site_B_iso_or_equiv
  _atom_site_type_symbol
  Zn1      1.0000 0.20760  0.32130  0.16110  Biso   1.000  Zn
  O1       1.0000 0.20190  0.47420  0.17390  Biso   1.000  O 
  C1       1.0000 0.17130  0.51860  0.26010  Biso   1.000  C 
  O2       1.0000 0.14020  0.47940  0.34950  Biso   1.000  O 
  Zn2      1.0000 0.13310  0.32780  0.38980  Biso   1.000  Zn
  O3       1.0000 0.30250  0.31370  0.32570  Biso   1.000  O 
  C2       1.0000 0.38240  0.31120  0.23370  Biso   1.000  C 
  C3       1.0000 0.49700  0.30610  0.23470  Biso   1.000  C 
  C4       1.0000 0.58860  0.29140  0.13930  Biso   1.000  C 
  H1       1.0000 0.57660  0.28150  0.07890  Biso   1.000  H 
  C5       1.0000 0.69600  0.29220  0.13900  Biso   1.000  C 
  H2       1.0000 0.75620  0.28160  0.07790  Biso   1.000  H 
  C6       1.0000 0.71490  0.30890  0.23020  Biso   1.000  C 
  C7       1.0000 0.82370  0.31070  0.23080  Biso   1.000  C 
  H3       1.0000 0.88500  0.30040  0.17040  Biso   1.000  H 
  C8       1.0000 0.83830  0.32770  0.32000  Biso   1.000  C 
  C9       1.0000 0.74730  0.34260  0.41590  Biso   1.000  C 
  H4       1.0000 0.75890  0.35240  0.47660  Biso   1.000  H 
  C10      1.0000 0.64270  0.34190  0.41380  Biso   1.000  C 
  H5       1.0000 0.58220  0.35520  0.47410  Biso   1.000  H 
  C11      1.0000 0.62320  0.32240  0.32690  Biso   1.000  C 
  C12      1.0000 0.51200  0.32190  0.32400  Biso   1.000  C 
  H6       1.0000 0.45050  0.33260  0.38410  Biso   1.000  H 
  C13      1.0000 0.95650  0.32810  0.31830  Biso   1.000  C 
  O4       1.0000 0.03430  0.33110  0.22920  Biso   1.000  O 
  O5       1.0000 0.97030  0.33630  0.40350  Biso   1.000  O 
  O6       1.0000 0.36730  0.30980  0.14950  Biso   1.000  O 
  O7       1.0000 0.13520  0.17410  0.37270  Biso   1.000  O 
  C14      1.0000 0.16680  0.12680  0.29110  Biso   1.000  C 
  C15      1.0000 0.16760  0.01270  0.30030  Biso   1.000  C 
  C16      1.0000 0.13350  0.96090  0.40050  Biso   1.000  C 
  H7       1.0000 0.11540  0.99880  0.45880  Biso   1.000  H 
  C17      1.0000 0.12700  0.85820  0.41260  Biso   1.000  C 
  C18      1.0000 0.15560  0.79700  0.32230  Biso   1.000  C 
  C19      1.0000 0.18930  0.84780  0.22390  Biso   1.000  C 
  C20      1.0000 0.19250  0.95820  0.21510  Biso   1.000  C 
  H8       1.0000 0.21190  0.99230  0.15000  Biso   1.000  H 
  C21      1.0000 0.21540  0.79200  0.13560  Biso   1.000  C 
  C22      1.0000 0.20670  0.68600  0.15020  Biso   1.000  C 
  H9       1.0000 0.22110  0.64810  0.09250  Biso   1.000  H 
  C23      1.0000 0.17810  0.63560  0.24560  Biso   1.000  C 
  C24      1.0000 0.15070  0.69060  0.33480  Biso   1.000  C 
  H10      1.0000 0.12990  0.65720  0.40030  Biso   1.000  H 
  H11      1.0000 0.23780  0.82440  0.06960  Biso   1.000  H 
  H12      1.0000 0.10430  0.82620  0.47880  Biso   1.000  H 
  O8       1.0000 0.20190  0.16800  0.20080  Biso   1.000  O 
  N1       1.0000 0.13160  0.32410  0.53720  Biso   1.000  N 
  C25      1.0000 0.15340  0.24070  0.58490  Biso   1.000  C 
  H13      1.0000 0.17740  0.18180  0.54800  Biso   1.000  H 
  C26      1.0000 0.14300  0.23470  0.68730  Biso   1.000  C 
  H14      1.0000 0.12721  0.16239  0.73342  Biso   1.000  H 
  C27      1.0000 0.15310  0.32270  0.73000  Biso   1.000  C 
  C28      1.0000 0.12700  0.40890  0.68230  Biso   1.000  C 
  C29      1.0000 0.12800  0.40900  0.58890  Biso   1.000  C 
  H15      1.0000 0.12610  0.47250  0.55390  Biso   1.000  H 
  H16      1.0000 0.10800  0.46940  0.71690  Biso   1.000  H 
  C30      1.0000 0.17150  0.32050  0.82750  Biso   1.000  C 
  C31      1.0000 0.15930  0.41080  0.87850  Biso   1.000  C 
  H17      1.0000 0.12296  0.48121  0.85328  Biso   1.000  H 
  C32      1.0000 0.19460  0.40910  0.96250  Biso   1.000  C 
  H18      1.0000 0.21639  0.47988  0.98405  Biso   1.000  H 
  N2       1.0000 0.20170  0.32150  0.01620  Biso   1.000  N 
  C33      1.0000 0.22120  0.24710  0.95800  Biso   1.000  C 
  H19      1.0000 0.25750  0.18940  0.97770  Biso   1.000  H 
  C34      1.0000 0.19900  0.23820  0.87610  Biso   1.000  C 
  H20      1.0000 0.20298  0.16275  0.84715  Biso   1.000  H 
