data_image0
_cell_length_a       13.452
_cell_length_b       15.086
_cell_length_c       8.65
_cell_angle_alpha    90
_cell_angle_beta     90
_cell_angle_gamma    90

_symmetry_space_group_name_H-M    "P 1"
_symmetry_int_tables_number       1

loop_
  _symmetry_equiv_pos_as_xyz
  'x, y, z'

loop_
  _atom_site_label
  _atom_site_occupancy
  _atom_site_fract_x
  _atom_site_fract_y
  _atom_site_fract_z
  _atom_site_thermal_displace_type
  _atom_site_B_iso_or_equiv
  _atom_site_type_symbol
  Ag1      1.0000 0.80389  0.06485  0.95803  Biso   1.000  Ag
  O1       1.0000 0.74980  0.01900  0.68030  Biso   1.000  O 
  N1       1.0000 0.69910  0.08760  0.66970  Biso   1.000  N 
  O2       1.0000 0.69770  0.14100  0.77800  Biso   1.000  O 
  O3       1.0000 0.65010  0.10070  0.55150  Biso   1.000  O 
  Ag2      1.0000 0.69611  0.93515  0.45803  Biso   1.000  Ag
  O4       1.0000 0.80230  0.85900  0.27800  Biso   1.000  O 
  N2       1.0000 0.80090  0.91240  0.16970  Biso   1.000  N 
  O5       1.0000 0.75020  0.98100  0.18030  Biso   1.000  O 
  O6       1.0000 0.84990  0.89930  0.05150  Biso   1.000  O 
  O7       1.0000 0.53670  0.89490  0.41380  Biso   1.000  O 
  P1       1.0000 0.44310  0.90520  0.50360  Biso   1.000  P 
  C1       1.0000 0.35730  0.82130  0.44290  Biso   1.000  C 
  C2       1.0000 0.39280  0.74890  0.36360  Biso   1.000  C 
  H1       1.0000 0.46910  0.74150  0.34900  Biso   1.000  H 
  C3       1.0000 0.32980  0.68680  0.30160  Biso   1.000  C 
  H2       1.0000 0.35770  0.63210  0.24300  Biso   1.000  H 
  C4       1.0000 0.22860  0.69750  0.31720  Biso   1.000  C 
  H3       1.0000 0.18000  0.65150  0.26900  Biso   1.000  H 
  C5       1.0000 0.19240  0.76780  0.39510  Biso   1.000  C 
  H4       1.0000 0.11610  0.77490  0.40900  Biso   1.000  H 
  C6       1.0000 0.25580  0.82970  0.45730  Biso   1.000  C 
  H5       1.0000 0.22660  0.88390  0.51600  Biso   1.000  H 
  C7       1.0000 0.46470  0.89340  0.70800  Biso   1.000  C 
  C8       1.0000 0.45570  0.81270  0.78140  Biso   1.000  C 
  H6       1.0000 0.42630  0.75810  0.72400  Biso   1.000  H 
  C9       1.0000 0.48530  0.80320  0.93410  Biso   1.000  C 
  H7       1.0000 0.47610  0.74250  0.98900  Biso   1.000  H 
  C10      1.0000 0.52740  0.87420  0.01500  Biso   1.000  C 
  H8       1.0000 0.55400  0.86530  0.12700  Biso   1.000  H 
  C11      1.0000 0.53340  0.95830  0.94300  Biso   1.000  C 
  H9       1.0000 0.55960  0.01290  0.00400  Biso   1.000  H 
  C12      1.0000 0.50370  0.96690  0.78910  Biso   1.000  C 
  H10      1.0000 0.51170  0.02790  0.73500  Biso   1.000  H 
  C13      1.0000 0.38460  0.00910  0.47400  Biso   1.000  C 
  C14      1.0000 0.41190  0.05930  0.35190  Biso   1.000  C 
  H11      1.0000 0.46800  0.03750  0.27800  Biso   1.000  H 
  C15      1.0000 0.36530  0.14250  0.32430  Biso   1.000  C 
  C16      1.0000 0.28920  0.17030  0.41910  Biso   1.000  C 
  H12      1.0000 0.25290  0.22960  0.39600  Biso   1.000  H 
  C17      1.0000 0.26150  0.11920  0.54410  Biso   1.000  C 
  H13      1.0000 0.20480  0.14050  0.61700  Biso   1.000  H 
  C18      1.0000 0.31040  0.04150  0.56940  Biso   1.000  C 
  H14      1.0000 0.29070  0.00430  0.66600  Biso   1.000  H 
  H15      1.0000 0.38800  0.18160  0.23200  Biso   1.000  H 
  O8       1.0000 0.96330  0.10510  0.91380  Biso   1.000  O 
  P2       1.0000 0.05690  0.09480  0.00360  Biso   1.000  P 
  C19      1.0000 0.03530  0.10660  0.20800  Biso   1.000  C 
  C20      1.0000 0.04430  0.18730  0.28140  Biso   1.000  C 
  H16      1.0000 0.07370  0.24190  0.22400  Biso   1.000  H 
  C21      1.0000 0.01470  0.19680  0.43410  Biso   1.000  C 
  H17      1.0000 0.02390  0.25750  0.48900  Biso   1.000  H 
  C22      1.0000 0.97260  0.12580  0.51500  Biso   1.000  C 
  H18      1.0000 0.94600  0.13470  0.62700  Biso   1.000  H 
  C23      1.0000 0.96660  0.04170  0.44300  Biso   1.000  C 
  C24      1.0000 0.99630  0.03310  0.28910  Biso   1.000  C 
  H19      1.0000 0.98830  0.97210  0.23500  Biso   1.000  H 
  H20      1.0000 0.94040  0.98710  0.50400  Biso   1.000  H 
  C25      1.0000 0.14270  0.17870  0.94290  Biso   1.000  C 
  C26      1.0000 0.24420  0.17030  0.95730  Biso   1.000  C 
  C27      1.0000 0.30760  0.23220  0.89510  Biso   1.000  C 
  H21      1.0000 0.38390  0.22510  0.90900  Biso   1.000  H 
  C28      1.0000 0.27140  0.30250  0.81720  Biso   1.000  C 
  C29      1.0000 0.17020  0.31320  0.80160  Biso   1.000  C 
  C30      1.0000 0.10720  0.25110  0.86360  Biso   1.000  C 
  H22      1.0000 0.03090  0.25850  0.84900  Biso   1.000  H 
  H23      1.0000 0.14230  0.36790  0.74300  Biso   1.000  H 
  H24      1.0000 0.32000  0.34850  0.76900  Biso   1.000  H 
  H25      1.0000 0.27340  0.11610  0.01600  Biso   1.000  H 
  C31      1.0000 0.11540  0.99090  0.97400  Biso   1.000  C 
  C32      1.0000 0.08810  0.94070  0.85190  Biso   1.000  C 
  H26      1.0000 0.03200  0.96250  0.77800  Biso   1.000  H 
  C33      1.0000 0.13470  0.85750  0.82430  Biso   1.000  C 
  H27      1.0000 0.11200  0.81840  0.73200  Biso   1.000  H 
  C34      1.0000 0.21080  0.82970  0.91910  Biso   1.000  C 
  H28      1.0000 0.24710  0.77040  0.89600  Biso   1.000  H 
  C35      1.0000 0.23850  0.88080  0.04410  Biso   1.000  C 
  H29      1.0000 0.29520  0.85950  0.11700  Biso   1.000  H 
  C36      1.0000 0.18960  0.95850  0.06940  Biso   1.000  C 
  H30      1.0000 0.20930  0.99570  0.16600  Biso   1.000  H 
