data_image0
_cell_length_a       11.3928
_cell_length_b       15.6359
_cell_length_c       16.3018
_cell_angle_alpha    90
_cell_angle_beta     96.451
_cell_angle_gamma    90

_symmetry_space_group_name_H-M    "P 1"
_symmetry_int_tables_number       1

loop_
  _symmetry_equiv_pos_as_xyz
  'x, y, z'

loop_
  _atom_site_label
  _atom_site_occupancy
  _atom_site_fract_x
  _atom_site_fract_y
  _atom_site_fract_z
  _atom_site_thermal_displace_type
  _atom_site_B_iso_or_equiv
  _atom_site_type_symbol
  Zn1      1.0000 0.47711  0.12601  0.46145  Biso   1.000  Zn
  O1       1.0000 0.46594  0.19947  0.33664  Biso   1.000  O 
  C1       1.0000 0.48190  0.26479  0.38128  Biso   1.000  C 
  O2       1.0000 0.48850  0.26102  0.45851  Biso   1.000  O 
  C2       1.0000 0.49760  0.35084  0.34157  Biso   1.000  C 
  C3       1.0000 0.49360  0.35732  0.25642  Biso   1.000  C 
  H1       1.0000 0.47670  0.30930  0.22350  Biso   1.000  H 
  C4       1.0000 0.51470  0.43543  0.22034  Biso   1.000  C 
  C5       1.0000 0.51570  0.44270  0.12851  Biso   1.000  C 
  O3       1.0000 0.54485  0.51240  0.09975  Biso   1.000  O 
  Zn2      1.0000 0.52289  0.62601  0.03855  Biso   1.000  Zn
  C6       1.0000 0.51810  0.76479  0.11872  Biso   1.000  C 
  O4       1.0000 0.51150  0.76102  0.04149  Biso   1.000  O 
  O5       1.0000 0.53406  0.69947  0.16336  Biso   1.000  O 
  C7       1.0000 0.50240  0.85084  0.15843  Biso   1.000  C 
  C8       1.0000 0.47760  0.92194  0.10917  Biso   1.000  C 
  H2       1.0000 0.47540  0.91760  0.05210  Biso   1.000  H 
  C9       1.0000 0.45580  0.00077  0.14589  Biso   1.000  C 
  O6       1.0000 0.43040  0.06714  0.09159  Biso   1.000  O 
  C10      1.0000 0.39740  0.14840  0.12430  Biso   1.000  C 
  C11      1.0000 0.27150  0.14930  0.14610  Biso   1.000  C 
  C12      1.0000 0.19170  0.09300  0.14310  Biso   1.000  C 
  H3       1.0000 0.11830  0.10620  0.15960  Biso   1.000  H 
  H4       1.0000 0.20630  0.03820  0.12450  Biso   1.000  H 
  H5       1.0000 0.24840  0.20190  0.16560  Biso   1.000  H 
  H6       1.0000 0.40620  0.19270  0.08380  Biso   1.000  H 
  H7       1.0000 0.45070  0.16150  0.17330  Biso   1.000  H 
  C13      1.0000 0.45990  0.00754  0.23039  Biso   1.000  C 
  H8       1.0000 0.44580  0.05990  0.25450  Biso   1.000  H 
  C14      1.0000 0.48530  0.93543  0.27966  Biso   1.000  C 
  C15      1.0000 0.50640  0.85732  0.24358  Biso   1.000  C 
  H9       1.0000 0.52330  0.80930  0.27650  Biso   1.000  H 
  C16      1.0000 0.48430  0.94270  0.37149  Biso   1.000  C 
  O7       1.0000 0.45515  0.01240  0.40025  Biso   1.000  O 
  O8       1.0000 0.50932  0.87573  0.41341  Biso   1.000  O 
  Zn3      1.0000 0.52289  0.87399  0.53855  Biso   1.000  Zn
  C17      1.0000 0.51810  0.73521  0.61872  Biso   1.000  C 
  O9       1.0000 0.51150  0.73898  0.54149  Biso   1.000  O 
  O10      1.0000 0.53406  0.80053  0.66336  Biso   1.000  O 
  C18      1.0000 0.50240  0.64916  0.65843  Biso   1.000  C 
  C19      1.0000 0.47760  0.57806  0.60917  Biso   1.000  C 
  C20      1.0000 0.45580  0.49923  0.64589  Biso   1.000  C 
  O11      1.0000 0.43040  0.43286  0.59159  Biso   1.000  O 
  C21      1.0000 0.39740  0.35160  0.62430  Biso   1.000  C 
  H10      1.0000 0.40620  0.30730  0.58380  Biso   1.000  H 
  C22      1.0000 0.27150  0.35070  0.64610  Biso   1.000  C 
  C23      1.0000 0.19170  0.40700  0.64310  Biso   1.000  C 
  H11      1.0000 0.20630  0.46180  0.62450  Biso   1.000  H 
  H12      1.0000 0.11830  0.39380  0.65960  Biso   1.000  H 
  H13      1.0000 0.24840  0.29810  0.66560  Biso   1.000  H 
  H14      1.0000 0.45070  0.33850  0.67330  Biso   1.000  H 
  C24      1.0000 0.45990  0.49246  0.73039  Biso   1.000  C 
  H15      1.0000 0.44580  0.44010  0.75450  Biso   1.000  H 
  C25      1.0000 0.48530  0.56457  0.77966  Biso   1.000  C 
  C26      1.0000 0.50640  0.64268  0.74358  Biso   1.000  C 
  H16      1.0000 0.52330  0.69070  0.77650  Biso   1.000  H 
  C27      1.0000 0.48430  0.55730  0.87149  Biso   1.000  C 
  O12      1.0000 0.45515  0.48760  0.90025  Biso   1.000  O 
  Zn4      1.0000 0.47711  0.37399  0.96145  Biso   1.000  Zn
  O13      1.0000 0.46594  0.30053  0.83664  Biso   1.000  O 
  C28      1.0000 0.48190  0.23521  0.88128  Biso   1.000  C 
  O14      1.0000 0.48850  0.23898  0.95851  Biso   1.000  O 
  C29      1.0000 0.49760  0.14916  0.84157  Biso   1.000  C 
  C30      1.0000 0.49360  0.14268  0.75642  Biso   1.000  C 
  H17      1.0000 0.47670  0.19070  0.72350  Biso   1.000  H 
  C31      1.0000 0.51470  0.06457  0.72034  Biso   1.000  C 
  C32      1.0000 0.51570  0.05730  0.62851  Biso   1.000  C 
  O15      1.0000 0.49068  0.12427  0.58659  Biso   1.000  O 
  O16      1.0000 0.54485  0.98760  0.59975  Biso   1.000  O 
  C33      1.0000 0.54010  0.99246  0.76961  Biso   1.000  C 
  C34      1.0000 0.54420  0.99923  0.85411  Biso   1.000  C 
  C35      1.0000 0.52240  0.07806  0.89083  Biso   1.000  C 
  H18      1.0000 0.52460  0.08240  0.94790  Biso   1.000  H 
  O17      1.0000 0.56960  0.93286  0.90841  Biso   1.000  O 
  C36      1.0000 0.60260  0.85160  0.87570  Biso   1.000  C 
  H19      1.0000 0.54930  0.83850  0.82670  Biso   1.000  H 
  C37      1.0000 0.72850  0.85070  0.85390  Biso   1.000  C 
  H20      1.0000 0.75160  0.79810  0.83440  Biso   1.000  H 
  C38      1.0000 0.80830  0.90700  0.85690  Biso   1.000  C 
  H21      1.0000 0.88170  0.89380  0.84040  Biso   1.000  H 
  H22      1.0000 0.79370  0.96180  0.87550  Biso   1.000  H 
  H23      1.0000 0.59380  0.80730  0.91620  Biso   1.000  H 
  H24      1.0000 0.55420  0.94010  0.74550  Biso   1.000  H 
  N1       1.0000 0.28820  0.37394  0.95818  Biso   1.000  N 
  C39      1.0000 0.21720  0.39860  0.89127  Biso   1.000  C 
  H25      1.0000 0.25160  0.41470  0.84450  Biso   1.000  H 
  C40      1.0000 0.09510  0.40140  0.88800  Biso   1.000  C 
  H26      1.0000 0.04940  0.41850  0.84000  Biso   1.000  H 
  C41      1.0000 0.04160  0.37836  0.95766  Biso   1.000  C 
  C42      1.0000 0.11510  0.35080  0.02600  Biso   1.000  C 
  H27      1.0000 0.08310  0.33290  0.07320  Biso   1.000  H 
  C43      1.0000 0.23540  0.34980  0.02390  Biso   1.000  C 
  H28      1.0000 0.28280  0.33140  0.07080  Biso   1.000  H 
  C44      1.0000 0.91130  0.38098  0.95766  Biso   1.000  C 
  C45      1.0000 0.83510  0.38270  0.88340  Biso   1.000  C 
  H29      1.0000 0.86540  0.38310  0.83280  Biso   1.000  H 
  C46      1.0000 0.71310  0.38370  0.88710  Biso   1.000  C 
  H30      1.0000 0.66290  0.38480  0.83800  Biso   1.000  H 
  N2       1.0000 0.66520  0.38328  0.95953  Biso   1.000  N 
  C47      1.0000 0.74140  0.38800  0.02880  Biso   1.000  C 
  H31      1.0000 0.71040  0.39220  0.07900  Biso   1.000  H 
  C48      1.0000 0.86310  0.38720  0.02980  Biso   1.000  C 
  H32      1.0000 0.91140  0.39090  0.07960  Biso   1.000  H 
  O18      1.0000 0.49068  0.37573  0.08659  Biso   1.000  O 
  O19      1.0000 0.50932  0.62427  0.91341  Biso   1.000  O 
  H33      1.0000 0.47540  0.58240  0.55210  Biso   1.000  H 
  N3       1.0000 0.33480  0.88328  0.54047  Biso   1.000  N 
  C49      1.0000 0.25860  0.88800  0.47120  Biso   1.000  C 
  H34      1.0000 0.28960  0.89220  0.42100  Biso   1.000  H 
  C50      1.0000 0.13690  0.88720  0.47020  Biso   1.000  C 
  H35      1.0000 0.08860  0.89090  0.42040  Biso   1.000  H 
  C51      1.0000 0.08870  0.88098  0.54234  Biso   1.000  C 
  C52      1.0000 0.16490  0.88270  0.61660  Biso   1.000  C 
  H36      1.0000 0.13460  0.88310  0.66720  Biso   1.000  H 
  C53      1.0000 0.28690  0.88370  0.61290  Biso   1.000  C 
  H37      1.0000 0.33710  0.88480  0.66200  Biso   1.000  H 
  C54      1.0000 0.95840  0.87836  0.54234  Biso   1.000  C 
  C55      1.0000 0.88490  0.85080  0.47400  Biso   1.000  C 
  H38      1.0000 0.91690  0.83290  0.42680  Biso   1.000  H 
  C56      1.0000 0.76460  0.84980  0.47610  Biso   1.000  C 
  H39      1.0000 0.71720  0.83140  0.42920  Biso   1.000  H 
  N4       1.0000 0.71180  0.87394  0.54182  Biso   1.000  N 
  C57      1.0000 0.78280  0.89860  0.60873  Biso   1.000  C 
  H40      1.0000 0.74840  0.91470  0.65550  Biso   1.000  H 
  C58      1.0000 0.90490  0.90140  0.61200  Biso   1.000  C 
  H41      1.0000 0.95060  0.91850  0.66000  Biso   1.000  H 
  N5       1.0000 0.33480  0.61672  0.04047  Biso   1.000  N 
  C59      1.0000 0.28690  0.61630  0.11290  Biso   1.000  C 
  C60      1.0000 0.16490  0.61730  0.11660  Biso   1.000  C 
  H42      1.0000 0.13460  0.61690  0.16720  Biso   1.000  H 
  C61      1.0000 0.08870  0.61902  0.04234  Biso   1.000  C 
  C62      1.0000 0.95840  0.62164  0.04234  Biso   1.000  C 
  C63      1.0000 0.90490  0.59860  0.11200  Biso   1.000  C 
  C64      1.0000 0.78280  0.60140  0.10873  Biso   1.000  C 
  H43      1.0000 0.74840  0.58530  0.15550  Biso   1.000  H 
  N6       1.0000 0.71180  0.62606  0.04182  Biso   1.000  N 
  C65      1.0000 0.76460  0.65020  0.97610  Biso   1.000  C 
  C66      1.0000 0.88490  0.64920  0.97400  Biso   1.000  C 
  H44      1.0000 0.91690  0.66710  0.92680  Biso   1.000  H 
  H45      1.0000 0.71720  0.66860  0.92920  Biso   1.000  H 
  H46      1.0000 0.95060  0.58150  0.16000  Biso   1.000  H 
  C67      1.0000 0.13690  0.61280  0.97020  Biso   1.000  C 
  C68      1.0000 0.25860  0.61200  0.97120  Biso   1.000  C 
  H47      1.0000 0.28960  0.60780  0.92100  Biso   1.000  H 
  H48      1.0000 0.08860  0.60910  0.92040  Biso   1.000  H 
  H49      1.0000 0.33710  0.61520  0.16200  Biso   1.000  H 
  C69      1.0000 0.54010  0.50754  0.26961  Biso   1.000  C 
  C70      1.0000 0.54420  0.50077  0.35411  Biso   1.000  C 
  O20      1.0000 0.56960  0.56714  0.40841  Biso   1.000  O 
  C71      1.0000 0.60260  0.64840  0.37570  Biso   1.000  C 
  H50      1.0000 0.54930  0.66150  0.32670  Biso   1.000  H 
  C72      1.0000 0.72850  0.64930  0.35390  Biso   1.000  C 
  H51      1.0000 0.75160  0.70190  0.33440  Biso   1.000  H 
  C73      1.0000 0.80830  0.59300  0.35690  Biso   1.000  C 
  H52      1.0000 0.88170  0.60620  0.34040  Biso   1.000  H 
  H53      1.0000 0.79370  0.53820  0.37550  Biso   1.000  H 
  H54      1.0000 0.59380  0.69270  0.41620  Biso   1.000  H 
  C74      1.0000 0.52240  0.42194  0.39083  Biso   1.000  C 
  H55      1.0000 0.52460  0.41760  0.44790  Biso   1.000  H 
  H56      1.0000 0.55420  0.55990  0.24550  Biso   1.000  H 
  N7       1.0000 0.28820  0.12606  0.45818  Biso   1.000  N 
  C75      1.0000 0.21720  0.10140  0.39127  Biso   1.000  C 
  H57      1.0000 0.25160  0.08530  0.34450  Biso   1.000  H 
  C76      1.0000 0.09510  0.09860  0.38800  Biso   1.000  C 
  H58      1.0000 0.04940  0.08150  0.34000  Biso   1.000  H 
  C77      1.0000 0.04160  0.12164  0.45766  Biso   1.000  C 
  C78      1.0000 0.11510  0.14920  0.52600  Biso   1.000  C 
  H59      1.0000 0.08310  0.16710  0.57320  Biso   1.000  H 
  C79      1.0000 0.23540  0.15020  0.52390  Biso   1.000  C 
  H60      1.0000 0.28280  0.16860  0.57080  Biso   1.000  H 
  C80      1.0000 0.91130  0.11902  0.45766  Biso   1.000  C 
  C81      1.0000 0.83510  0.11730  0.38340  Biso   1.000  C 
  H61      1.0000 0.86540  0.11690  0.33280  Biso   1.000  H 
  C82      1.0000 0.71310  0.11630  0.38710  Biso   1.000  C 
  H62      1.0000 0.66290  0.11520  0.33800  Biso   1.000  H 
  N8       1.0000 0.66520  0.11672  0.45953  Biso   1.000  N 
  C83      1.0000 0.74140  0.11200  0.52880  Biso   1.000  C 
  H63      1.0000 0.71040  0.10780  0.57900  Biso   1.000  H 
  C84      1.0000 0.86310  0.11280  0.52980  Biso   1.000  C 
  H64      1.0000 0.91140  0.10910  0.57960  Biso   1.000  H 
