data_image0
_cell_length_a       15.2735
_cell_length_b       15.2735
_cell_length_c       18.9723
_cell_angle_alpha    90
_cell_angle_beta     90
_cell_angle_gamma    90

_symmetry_space_group_name_H-M    "P 1"
_symmetry_int_tables_number       1

loop_
  _symmetry_equiv_pos_as_xyz
  'x, y, z'

loop_
  _atom_site_label
  _atom_site_occupancy
  _atom_site_fract_x
  _atom_site_fract_y
  _atom_site_fract_z
  _atom_site_thermal_displace_type
  _atom_site_B_iso_or_equiv
  _atom_site_type_symbol
  Co1      1.0000 0.50000  0.50000  0.57123  Biso   1.000  Co
  Co2      1.0000 0.50000  0.50000  0.42877  Biso   1.000  Co
  O1       1.0000 0.42890  0.38960  0.44130  Biso   1.000  O 
  C1       1.0000 0.40670  0.35780  0.50000  Biso   1.000  C 
  C2       1.0000 0.34590  0.28480  0.50000  Biso   1.000  C 
  C3       1.0000 0.31200  0.25420  0.43820  Biso   1.000  C 
  H1       1.0000 0.33220  0.27670  0.39560  Biso   1.000  H 
  C4       1.0000 0.24580  0.18800  0.43820  Biso   1.000  C 
  H2       1.0000 0.22330  0.16780  0.39560  Biso   1.000  H 
  C5       1.0000 0.21520  0.15410  0.50000  Biso   1.000  C 
  C6       1.0000 0.24580  0.18800  0.56180  Biso   1.000  C 
  H3       1.0000 0.22330  0.16780  0.60440  Biso   1.000  H 
  C7       1.0000 0.31200  0.25420  0.56180  Biso   1.000  C 
  H4       1.0000 0.33220  0.27670  0.60440  Biso   1.000  H 
  C8       1.0000 0.14220  0.09330  0.50000  Biso   1.000  C 
  O2       1.0000 0.11040  0.07110  0.44130  Biso   1.000  O 
  Co3      1.0000 0.00000  0.00000  0.42877  Biso   1.000  Co
  N1       1.0000 0.00000  0.00000  0.31850  Biso   1.000  N 
  C9       1.0000 0.04980  0.07760  0.29360  Biso   1.000  C 
  H5       1.0000 0.00933  0.13627  0.29499  Biso   1.000  H 
  H6       1.0000 0.10824  0.08787  0.32543  Biso   1.000  H 
  C10      1.0000 0.07760  0.04980  0.20640  Biso   1.000  C 
  H7       1.0000 0.08787  0.10824  0.17457  Biso   1.000  H 
  H8       1.0000 0.13627  0.00933  0.20501  Biso   1.000  H 
  N2       1.0000 0.00000  0.00000  0.18150  Biso   1.000  N 
  Co4      1.0000 0.00000  0.00000  0.07123  Biso   1.000  Co
  O3       1.0000 0.07110  0.11040  0.05870  Biso   1.000  O 
  C11      1.0000 0.09330  0.14220  0.00000  Biso   1.000  C 
  C12      1.0000 0.15410  0.21520  0.00000  Biso   1.000  C 
  C13      1.0000 0.18800  0.24580  0.06180  Biso   1.000  C 
  H9       1.0000 0.16780  0.22330  0.10440  Biso   1.000  H 
  C14      1.0000 0.25420  0.31200  0.06180  Biso   1.000  C 
  H10      1.0000 0.27670  0.33220  0.10440  Biso   1.000  H 
  C15      1.0000 0.28480  0.34590  0.00000  Biso   1.000  C 
  C16      1.0000 0.35780  0.40670  0.00000  Biso   1.000  C 
  O4       1.0000 0.38960  0.42890  0.94130  Biso   1.000  O 
  Co5      1.0000 0.50000  0.50000  0.92877  Biso   1.000  Co
  O5       1.0000 0.42890  0.61040  0.94130  Biso   1.000  O 
  C17      1.0000 0.40670  0.64220  0.00000  Biso   1.000  C 
  C18      1.0000 0.34590  0.71520  0.00000  Biso   1.000  C 
  C19      1.0000 0.31200  0.74580  0.06180  Biso   1.000  C 
  H11      1.0000 0.33220  0.72330  0.10440  Biso   1.000  H 
  C20      1.0000 0.24580  0.81200  0.06180  Biso   1.000  C 
  H12      1.0000 0.22330  0.83220  0.10440  Biso   1.000  H 
  C21      1.0000 0.21520  0.84590  0.00000  Biso   1.000  C 
  C22      1.0000 0.14220  0.90670  0.00000  Biso   1.000  C 
  O6       1.0000 0.11040  0.92890  0.05870  Biso   1.000  O 
  O7       1.0000 0.11040  0.92890  0.94130  Biso   1.000  O 
  Co6      1.0000 0.00000  0.00000  0.92877  Biso   1.000  Co
  N3       1.0000 0.00000  0.00000  0.81850  Biso   1.000  N 
  C23      1.0000 0.07760  0.04980  0.79360  Biso   1.000  C 
  C24      1.0000 0.04980  0.07760  0.70640  Biso   1.000  C 
  H13      1.0000 0.10824  0.08787  0.67457  Biso   1.000  H 
  H14      1.0000 0.00933  0.13627  0.70501  Biso   1.000  H 
  N4       1.0000 0.00000  0.00000  0.68150  Biso   1.000  N 
  Co7      1.0000 0.00000  0.00000  0.57123  Biso   1.000  Co
  O8       1.0000 0.11040  0.07110  0.55870  Biso   1.000  O 
  O9       1.0000 0.88960  0.92890  0.55870  Biso   1.000  O 
  C25      1.0000 0.85780  0.90670  0.50000  Biso   1.000  C 
  C26      1.0000 0.78480  0.84590  0.50000  Biso   1.000  C 
  C27      1.0000 0.75420  0.81200  0.43820  Biso   1.000  C 
  H15      1.0000 0.77670  0.83220  0.39560  Biso   1.000  H 
  C28      1.0000 0.68800  0.74580  0.43820  Biso   1.000  C 
  H16      1.0000 0.66780  0.72330  0.39560  Biso   1.000  H 
  C29      1.0000 0.65410  0.71520  0.50000  Biso   1.000  C 
  C30      1.0000 0.68800  0.74580  0.56180  Biso   1.000  C 
  C31      1.0000 0.75420  0.81200  0.56180  Biso   1.000  C 
  H17      1.0000 0.77670  0.83220  0.60440  Biso   1.000  H 
  H18      1.0000 0.66780  0.72330  0.60440  Biso   1.000  H 
  C32      1.0000 0.59330  0.64220  0.50000  Biso   1.000  C 
  O10      1.0000 0.57110  0.61040  0.55870  Biso   1.000  O 
  O11      1.0000 0.57110  0.61040  0.44130  Biso   1.000  O 
  O12      1.0000 0.88960  0.92890  0.44130  Biso   1.000  O 
  O13      1.0000 0.92890  0.11040  0.55870  Biso   1.000  O 
  C33      1.0000 0.90670  0.14220  0.50000  Biso   1.000  C 
  C34      1.0000 0.84590  0.21520  0.50000  Biso   1.000  C 
  C35      1.0000 0.81200  0.24580  0.43820  Biso   1.000  C 
  C36      1.0000 0.74580  0.31200  0.43820  Biso   1.000  C 
  H19      1.0000 0.72330  0.33220  0.39560  Biso   1.000  H 
  C37      1.0000 0.71520  0.34590  0.50000  Biso   1.000  C 
  C38      1.0000 0.74580  0.31200  0.56180  Biso   1.000  C 
  H20      1.0000 0.72330  0.33220  0.60440  Biso   1.000  H 
  C39      1.0000 0.81200  0.24580  0.56180  Biso   1.000  C 
  H21      1.0000 0.83220  0.22330  0.60440  Biso   1.000  H 
  C40      1.0000 0.64220  0.40670  0.50000  Biso   1.000  C 
  O14      1.0000 0.61040  0.42890  0.55870  Biso   1.000  O 
  O15      1.0000 0.61040  0.42890  0.44130  Biso   1.000  O 
  H22      1.0000 0.83220  0.22330  0.39560  Biso   1.000  H 
  O16      1.0000 0.92890  0.11040  0.44130  Biso   1.000  O 
  O17      1.0000 0.07110  0.88960  0.55870  Biso   1.000  O 
  C41      1.0000 0.09330  0.85780  0.50000  Biso   1.000  C 
  C42      1.0000 0.15410  0.78480  0.50000  Biso   1.000  C 
  C43      1.0000 0.18800  0.75420  0.43820  Biso   1.000  C 
  C44      1.0000 0.25420  0.68800  0.43820  Biso   1.000  C 
  H23      1.0000 0.27670  0.66780  0.39560  Biso   1.000  H 
  C45      1.0000 0.28480  0.65410  0.50000  Biso   1.000  C 
  C46      1.0000 0.25420  0.68800  0.56180  Biso   1.000  C 
  C47      1.0000 0.18800  0.75420  0.56180  Biso   1.000  C 
  H24      1.0000 0.16780  0.77670  0.60440  Biso   1.000  H 
  H25      1.0000 0.27670  0.66780  0.60440  Biso   1.000  H 
  C48      1.0000 0.35780  0.59330  0.50000  Biso   1.000  C 
  O18      1.0000 0.38960  0.57110  0.55870  Biso   1.000  O 
  O19      1.0000 0.38960  0.57110  0.44130  Biso   1.000  O 
  H26      1.0000 0.16780  0.77670  0.39560  Biso   1.000  H 
  O20      1.0000 0.07110  0.88960  0.44130  Biso   1.000  O 
  C49      1.0000 0.07760  0.95020  0.70640  Biso   1.000  C 
  H27      1.0000 0.08787  0.89176  0.67457  Biso   1.000  H 
  H28      1.0000 0.13627  0.99067  0.70501  Biso   1.000  H 
  C50      1.0000 0.04980  0.92240  0.79360  Biso   1.000  C 
  H29      1.0000 0.00933  0.86373  0.79499  Biso   1.000  H 
  H30      1.0000 0.10824  0.91213  0.82543  Biso   1.000  H 
  C51      1.0000 0.92240  0.95020  0.79360  Biso   1.000  C 
  C52      1.0000 0.95020  0.92240  0.70640  Biso   1.000  C 
  H31      1.0000 0.89176  0.91213  0.67457  Biso   1.000  H 
  H32      1.0000 0.99067  0.86373  0.70501  Biso   1.000  H 
  C53      1.0000 0.92240  0.04980  0.70640  Biso   1.000  C 
  H33      1.0000 0.91213  0.10824  0.67457  Biso   1.000  H 
  H34      1.0000 0.86373  0.00933  0.70501  Biso   1.000  H 
  C54      1.0000 0.95020  0.07760  0.79360  Biso   1.000  C 
  H35      1.0000 0.99067  0.13627  0.79499  Biso   1.000  H 
  H36      1.0000 0.89176  0.08787  0.82543  Biso   1.000  H 
  H37      1.0000 0.86373  0.99067  0.79499  Biso   1.000  H 
  H38      1.0000 0.91213  0.89176  0.82543  Biso   1.000  H 
  H39      1.0000 0.13627  0.00933  0.79499  Biso   1.000  H 
  H40      1.0000 0.08787  0.10824  0.82543  Biso   1.000  H 
  O21      1.0000 0.07110  0.11040  0.94130  Biso   1.000  O 
  O22      1.0000 0.88960  0.07110  0.94130  Biso   1.000  O 
  C55      1.0000 0.85780  0.09330  0.00000  Biso   1.000  C 
  C56      1.0000 0.78480  0.15410  0.00000  Biso   1.000  C 
  C57      1.0000 0.75420  0.18800  0.06180  Biso   1.000  C 
  H41      1.0000 0.77670  0.16780  0.10440  Biso   1.000  H 
  C58      1.0000 0.68800  0.25420  0.06180  Biso   1.000  C 
  H42      1.0000 0.66780  0.27670  0.10440  Biso   1.000  H 
  C59      1.0000 0.65410  0.28480  0.00000  Biso   1.000  C 
  C60      1.0000 0.59330  0.35780  0.00000  Biso   1.000  C 
  O23      1.0000 0.57110  0.38960  0.94130  Biso   1.000  O 
  O24      1.0000 0.57110  0.38960  0.05870  Biso   1.000  O 
  Co8      1.0000 0.50000  0.50000  0.07123  Biso   1.000  Co
  O25      1.0000 0.38960  0.42890  0.05870  Biso   1.000  O 
  O26      1.0000 0.42890  0.61040  0.05870  Biso   1.000  O 
  O27      1.0000 0.61040  0.57110  0.05870  Biso   1.000  O 
  C61      1.0000 0.64220  0.59330  0.00000  Biso   1.000  C 
  C62      1.0000 0.71520  0.65410  0.00000  Biso   1.000  C 
  C63      1.0000 0.74580  0.68800  0.06180  Biso   1.000  C 
  H43      1.0000 0.72330  0.66780  0.10440  Biso   1.000  H 
  C64      1.0000 0.81200  0.75420  0.06180  Biso   1.000  C 
  H44      1.0000 0.83220  0.77670  0.10440  Biso   1.000  H 
  C65      1.0000 0.84590  0.78480  0.00000  Biso   1.000  C 
  C66      1.0000 0.90670  0.85780  0.00000  Biso   1.000  C 
  O28      1.0000 0.92890  0.88960  0.05870  Biso   1.000  O 
  O29      1.0000 0.92890  0.88960  0.94130  Biso   1.000  O 
  C67      1.0000 0.81200  0.75420  0.93820  Biso   1.000  C 
  H45      1.0000 0.83220  0.77670  0.89560  Biso   1.000  H 
  C68      1.0000 0.74580  0.68800  0.93820  Biso   1.000  C 
  H46      1.0000 0.72330  0.66780  0.89560  Biso   1.000  H 
  O30      1.0000 0.61040  0.57110  0.94130  Biso   1.000  O 
  N5       1.0000 0.50000  0.50000  0.18150  Biso   1.000  N 
  C69      1.0000 0.45020  0.42240  0.20640  Biso   1.000  C 
  H47      1.0000 0.39176  0.41213  0.17457  Biso   1.000  H 
  H48      1.0000 0.49067  0.36373  0.20501  Biso   1.000  H 
  C70      1.0000 0.42240  0.45020  0.29360  Biso   1.000  C 
  H49      1.0000 0.41213  0.39176  0.32543  Biso   1.000  H 
  H50      1.0000 0.36373  0.49067  0.29499  Biso   1.000  H 
  C71      1.0000 0.54980  0.42240  0.29360  Biso   1.000  C 
  C72      1.0000 0.57760  0.45020  0.20640  Biso   1.000  C 
  H51      1.0000 0.58787  0.39176  0.17457  Biso   1.000  H 
  H52      1.0000 0.63627  0.49067  0.20501  Biso   1.000  H 
  C73      1.0000 0.54980  0.57760  0.20640  Biso   1.000  C 
  H53      1.0000 0.60824  0.58787  0.17457  Biso   1.000  H 
  H54      1.0000 0.50933  0.63627  0.20501  Biso   1.000  H 
  C74      1.0000 0.57760  0.54980  0.29360  Biso   1.000  C 
  C75      1.0000 0.45020  0.57760  0.29360  Biso   1.000  C 
  C76      1.0000 0.42240  0.54980  0.20640  Biso   1.000  C 
  H55      1.0000 0.36373  0.50933  0.20501  Biso   1.000  H 
  H56      1.0000 0.41213  0.60824  0.17457  Biso   1.000  H 
  H57      1.0000 0.39176  0.58787  0.32543  Biso   1.000  H 
  H58      1.0000 0.49067  0.63627  0.29499  Biso   1.000  H 
  N6       1.0000 0.50000  0.50000  0.31850  Biso   1.000  N 
  H59      1.0000 0.63627  0.50933  0.29499  Biso   1.000  H 
  H60      1.0000 0.58787  0.60824  0.32543  Biso   1.000  H 
  H61      1.0000 0.50933  0.36373  0.29499  Biso   1.000  H 
  H62      1.0000 0.60824  0.41213  0.32543  Biso   1.000  H 
  C77      1.0000 0.68800  0.25420  0.93820  Biso   1.000  C 
  C78      1.0000 0.75420  0.18800  0.93820  Biso   1.000  C 
  H63      1.0000 0.77670  0.16780  0.89560  Biso   1.000  H 
  H64      1.0000 0.66780  0.27670  0.89560  Biso   1.000  H 
  O31      1.0000 0.88960  0.07110  0.05870  Biso   1.000  O 
  C79      1.0000 0.24580  0.81200  0.93820  Biso   1.000  C 
  H65      1.0000 0.22330  0.83220  0.89560  Biso   1.000  H 
  C80      1.0000 0.31200  0.74580  0.93820  Biso   1.000  C 
  H66      1.0000 0.33220  0.72330  0.89560  Biso   1.000  H 
  N7       1.0000 0.50000  0.50000  0.81850  Biso   1.000  N 
  C81      1.0000 0.45020  0.42240  0.79360  Biso   1.000  C 
  H67      1.0000 0.49067  0.36373  0.79499  Biso   1.000  H 
  H68      1.0000 0.39176  0.41213  0.82543  Biso   1.000  H 
  C82      1.0000 0.42240  0.45020  0.70640  Biso   1.000  C 
  H69      1.0000 0.41213  0.39176  0.67457  Biso   1.000  H 
  H70      1.0000 0.36373  0.49067  0.70501  Biso   1.000  H 
  C83      1.0000 0.45020  0.57760  0.70640  Biso   1.000  C 
  H71      1.0000 0.39176  0.58787  0.67457  Biso   1.000  H 
  H72      1.0000 0.49067  0.63627  0.70501  Biso   1.000  H 
  C84      1.0000 0.42240  0.54980  0.79360  Biso   1.000  C 
  H73      1.0000 0.41213  0.60824  0.82543  Biso   1.000  H 
  H74      1.0000 0.36373  0.50933  0.79499  Biso   1.000  H 
  C85      1.0000 0.54980  0.57760  0.79360  Biso   1.000  C 
  H75      1.0000 0.60824  0.58787  0.82543  Biso   1.000  H 
  H76      1.0000 0.50933  0.63627  0.79499  Biso   1.000  H 
  C86      1.0000 0.57760  0.54980  0.70640  Biso   1.000  C 
  H77      1.0000 0.58787  0.60824  0.67457  Biso   1.000  H 
  H78      1.0000 0.63627  0.50933  0.70501  Biso   1.000  H 
  N8       1.0000 0.50000  0.50000  0.68150  Biso   1.000  N 
  C87      1.0000 0.54980  0.42240  0.70640  Biso   1.000  C 
  H79      1.0000 0.60824  0.41213  0.67457  Biso   1.000  H 
  H80      1.0000 0.50933  0.36373  0.70501  Biso   1.000  H 
  C88      1.0000 0.57760  0.45020  0.79360  Biso   1.000  C 
  H81      1.0000 0.63627  0.49067  0.79499  Biso   1.000  H 
  H82      1.0000 0.58787  0.39176  0.82543  Biso   1.000  H 
  C89      1.0000 0.25420  0.31200  0.93820  Biso   1.000  C 
  C90      1.0000 0.18800  0.24580  0.93820  Biso   1.000  C 
  H83      1.0000 0.16780  0.22330  0.89560  Biso   1.000  H 
  H84      1.0000 0.27670  0.33220  0.89560  Biso   1.000  H 
  C91      1.0000 0.92240  0.95020  0.20640  Biso   1.000  C 
  H85      1.0000 0.91213  0.89176  0.17457  Biso   1.000  H 
  H86      1.0000 0.86373  0.99067  0.20501  Biso   1.000  H 
  C92      1.0000 0.95020  0.92240  0.29360  Biso   1.000  C 
  H87      1.0000 0.99067  0.86373  0.29499  Biso   1.000  H 
  H88      1.0000 0.89176  0.91213  0.32543  Biso   1.000  H 
  C93      1.0000 0.92240  0.04980  0.29360  Biso   1.000  C 
  H89      1.0000 0.91213  0.10824  0.32543  Biso   1.000  H 
  H90      1.0000 0.86373  0.00933  0.29499  Biso   1.000  H 
  C94      1.0000 0.95020  0.07760  0.20640  Biso   1.000  C 
  H91      1.0000 0.89176  0.08787  0.17457  Biso   1.000  H 
  H92      1.0000 0.99067  0.13627  0.20501  Biso   1.000  H 
  C95      1.0000 0.07760  0.95020  0.29360  Biso   1.000  C 
  H93      1.0000 0.13627  0.99067  0.29499  Biso   1.000  H 
  H94      1.0000 0.08787  0.89176  0.32543  Biso   1.000  H 
  C96      1.0000 0.04980  0.92240  0.20640  Biso   1.000  C 
  H95      1.0000 0.10824  0.91213  0.17457  Biso   1.000  H 
  H96      1.0000 0.00933  0.86373  0.20501  Biso   1.000  H 
  O32      1.0000 0.42890  0.38960  0.55870  Biso   1.000  O 
