data_image0
_cell_length_a       20.323
_cell_length_b       20.148
_cell_length_c       8.4363
_cell_angle_alpha    90
_cell_angle_beta     99.768
_cell_angle_gamma    90

_symmetry_space_group_name_H-M    "P 1"
_symmetry_int_tables_number       1

loop_
  _symmetry_equiv_pos_as_xyz
  'x, y, z'

loop_
  _atom_site_label
  _atom_site_occupancy
  _atom_site_fract_x
  _atom_site_fract_y
  _atom_site_fract_z
  _atom_site_thermal_displace_type
  _atom_site_B_iso_or_equiv
  _atom_site_type_symbol
  Ru1      1.0000 0.27695  0.29927  0.53190  Biso   1.000  Ru
  O1       1.0000 0.19529  0.34882  0.40760  Biso   1.000  O 
  C1       1.0000 0.14626  0.31401  0.34610  Biso   1.000  C 
  C2       1.0000 0.08366  0.35216  0.26940  Biso   1.000  C 
  F1       1.0000 0.04889  0.36850  0.37690  Biso   1.000  F 
  F2       1.0000 0.09907  0.40751  0.20250  Biso   1.000  F 
  F3       1.0000 0.04679  0.31808  0.15570  Biso   1.000  F 
  O2       1.0000 0.14197  0.25210  0.34540  Biso   1.000  O 
  Ru2      1.0000 0.22305  0.20073  0.46810  Biso   1.000  Ru
  N1       1.0000 0.17106  0.10329  0.39260  Biso   1.000  N 
  C3       1.0000 0.14316  0.05933  0.32850  Biso   1.000  C 
  C4       1.0000 0.11209  0.00000  0.25730  Biso   1.000  C 
  C5       1.0000 0.05927  0.00000  0.13530  Biso   1.000  C 
  C6       1.0000 0.02827  0.93961  0.06410  Biso   1.000  C 
  S1       1.0000 0.00000  0.82734  0.00000  Biso   1.000  S 
  N2       1.0000 0.95133  0.87895  0.88940  Biso   1.000  N 
  C7       1.0000 0.97173  0.93961  0.93590  Biso   1.000  C 
  C8       1.0000 0.94073  0.00000  0.86470  Biso   1.000  C 
  C9       1.0000 0.88791  0.00000  0.74270  Biso   1.000  C 
  C10      1.0000 0.85684  0.94067  0.67150  Biso   1.000  C 
  N3       1.0000 0.82894  0.89671  0.60740  Biso   1.000  N 
  Ru3      1.0000 0.77695  0.79927  0.53190  Biso   1.000  Ru
  O3       1.0000 0.69529  0.84882  0.40760  Biso   1.000  O 
  C11      1.0000 0.64626  0.81401  0.34610  Biso   1.000  C 
  C12      1.0000 0.58366  0.85216  0.26940  Biso   1.000  C 
  F4       1.0000 0.54889  0.86850  0.37690  Biso   1.000  F 
  F5       1.0000 0.59907  0.90751  0.20250  Biso   1.000  F 
  F6       1.0000 0.54679  0.81808  0.15570  Biso   1.000  F 
  O4       1.0000 0.64197  0.75210  0.34540  Biso   1.000  O 
  Ru4      1.0000 0.72305  0.70073  0.46810  Biso   1.000  Ru
  N4       1.0000 0.67106  0.60329  0.39260  Biso   1.000  N 
  C13      1.0000 0.64316  0.55933  0.32850  Biso   1.000  C 
  C14      1.0000 0.61209  0.50000  0.25730  Biso   1.000  C 
  C15      1.0000 0.55927  0.50000  0.13530  Biso   1.000  C 
  C16      1.0000 0.52827  0.43961  0.06410  Biso   1.000  C 
  S2       1.0000 0.50000  0.32734  0.00000  Biso   1.000  S 
  N5       1.0000 0.45133  0.37895  0.88940  Biso   1.000  N 
  C17      1.0000 0.47173  0.43961  0.93590  Biso   1.000  C 
  C18      1.0000 0.44073  0.50000  0.86470  Biso   1.000  C 
  C19      1.0000 0.47173  0.56039  0.93590  Biso   1.000  C 
  S3       1.0000 0.50000  0.67266  0.00000  Biso   1.000  S 
  N6       1.0000 0.45133  0.62105  0.88940  Biso   1.000  N 
  N7       1.0000 0.54867  0.62105  0.11060  Biso   1.000  N 
  C20      1.0000 0.52827  0.56039  0.06410  Biso   1.000  C 
  C21      1.0000 0.38791  0.50000  0.74270  Biso   1.000  C 
  C22      1.0000 0.35684  0.44067  0.67150  Biso   1.000  C 
  N8       1.0000 0.32894  0.39671  0.60740  Biso   1.000  N 
  C23      1.0000 0.35684  0.55933  0.67150  Biso   1.000  C 
  N9       1.0000 0.32894  0.60329  0.60740  Biso   1.000  N 
  Ru5      1.0000 0.27695  0.70073  0.53190  Biso   1.000  Ru
  O5       1.0000 0.19529  0.65118  0.40760  Biso   1.000  O 
  C24      1.0000 0.14626  0.68599  0.34610  Biso   1.000  C 
  C25      1.0000 0.08366  0.64784  0.26940  Biso   1.000  C 
  F7       1.0000 0.04889  0.63150  0.37690  Biso   1.000  F 
  F8       1.0000 0.09907  0.59249  0.20250  Biso   1.000  F 
  F9       1.0000 0.04679  0.68192  0.15570  Biso   1.000  F 
  O6       1.0000 0.14197  0.74790  0.34540  Biso   1.000  O 
  Ru6      1.0000 0.22305  0.79927  0.46810  Biso   1.000  Ru
  O7       1.0000 0.17970  0.79261  0.67120  Biso   1.000  O 
  C26      1.0000 0.19466  0.74100  0.75580  Biso   1.000  C 
  C27      1.0000 0.15752  0.73310  0.89990  Biso   1.000  C 
  F10      1.0000 0.14815  0.79130  0.96550  Biso   1.000  F 
  F11      1.0000 0.19153  0.69554  0.01360  Biso   1.000  F 
  F12      1.0000 0.09851  0.70760  0.84930  Biso   1.000  F 
  O8       1.0000 0.23251  0.69546  0.73380  Biso   1.000  O 
  N10      1.0000 0.17106  0.89671  0.39260  Biso   1.000  N 
  C28      1.0000 0.14316  0.94067  0.32850  Biso   1.000  C 
  O9       1.0000 0.26749  0.80454  0.26620  Biso   1.000  O 
  C29      1.0000 0.30534  0.75900  0.24420  Biso   1.000  C 
  C30      1.0000 0.34248  0.76690  0.10010  Biso   1.000  C 
  F13      1.0000 0.30847  0.80446  0.98640  Biso   1.000  F 
  F14      1.0000 0.35185  0.70870  0.03450  Biso   1.000  F 
  F15      1.0000 0.40149  0.79240  0.15070  Biso   1.000  F 
  O10      1.0000 0.32030  0.70739  0.32880  Biso   1.000  O 
  O11      1.0000 0.30471  0.84882  0.59240  Biso   1.000  O 
  C31      1.0000 0.35374  0.81401  0.65390  Biso   1.000  C 
  C32      1.0000 0.41634  0.85216  0.73060  Biso   1.000  C 
  F16      1.0000 0.45111  0.86850  0.62310  Biso   1.000  F 
  F17      1.0000 0.40093  0.90751  0.79750  Biso   1.000  F 
  F18      1.0000 0.45321  0.81808  0.84430  Biso   1.000  F 
  O12      1.0000 0.35803  0.75210  0.65460  Biso   1.000  O 
  N11      1.0000 0.54867  0.37895  0.11060  Biso   1.000  N 
  C33      1.0000 0.64316  0.44067  0.32850  Biso   1.000  C 
  N12      1.0000 0.67106  0.39671  0.39260  Biso   1.000  N 
  Ru7      1.0000 0.72305  0.29927  0.46810  Biso   1.000  Ru
  O13      1.0000 0.64197  0.24790  0.34540  Biso   1.000  O 
  C34      1.0000 0.64626  0.18599  0.34610  Biso   1.000  C 
  C35      1.0000 0.58366  0.14784  0.26940  Biso   1.000  C 
  F19      1.0000 0.54889  0.13150  0.37690  Biso   1.000  F 
  F20      1.0000 0.59907  0.09249  0.20250  Biso   1.000  F 
  F21      1.0000 0.54679  0.18192  0.15570  Biso   1.000  F 
  O14      1.0000 0.69529  0.15118  0.40760  Biso   1.000  O 
  Ru8      1.0000 0.77695  0.20073  0.53190  Biso   1.000  Ru
  O15      1.0000 0.73251  0.19546  0.73380  Biso   1.000  O 
  C36      1.0000 0.69466  0.24100  0.75580  Biso   1.000  C 
  C37      1.0000 0.65752  0.23310  0.89990  Biso   1.000  C 
  F22      1.0000 0.64815  0.29130  0.96550  Biso   1.000  F 
  F23      1.0000 0.69153  0.19554  0.01360  Biso   1.000  F 
  F24      1.0000 0.59851  0.20760  0.84930  Biso   1.000  F 
  O16      1.0000 0.67970  0.29261  0.67120  Biso   1.000  O 
  O17      1.0000 0.82030  0.20739  0.32880  Biso   1.000  O 
  C38      1.0000 0.80534  0.25900  0.24420  Biso   1.000  C 
  C39      1.0000 0.84248  0.26690  0.10010  Biso   1.000  C 
  F25      1.0000 0.80847  0.30446  0.98640  Biso   1.000  F 
  F26      1.0000 0.85185  0.20870  0.03450  Biso   1.000  F 
  F27      1.0000 0.90149  0.29240  0.15070  Biso   1.000  F 
  O18      1.0000 0.76749  0.30454  0.26620  Biso   1.000  O 
  N13      1.0000 0.82894  0.10329  0.60740  Biso   1.000  N 
  C40      1.0000 0.85684  0.05933  0.67150  Biso   1.000  C 
  O19      1.0000 0.85803  0.25210  0.65460  Biso   1.000  O 
  C41      1.0000 0.85374  0.31401  0.65390  Biso   1.000  C 
  C42      1.0000 0.91634  0.35216  0.73060  Biso   1.000  C 
  F28      1.0000 0.95111  0.36850  0.62310  Biso   1.000  F 
  F29      1.0000 0.90093  0.40751  0.79750  Biso   1.000  F 
  F30      1.0000 0.95321  0.31808  0.84430  Biso   1.000  F 
  O20      1.0000 0.80471  0.34882  0.59240  Biso   1.000  O 
  O21      1.0000 0.67970  0.70739  0.67120  Biso   1.000  O 
  C43      1.0000 0.69466  0.75900  0.75580  Biso   1.000  C 
  C44      1.0000 0.65752  0.76690  0.89990  Biso   1.000  C 
  F31      1.0000 0.64815  0.70870  0.96550  Biso   1.000  F 
  F32      1.0000 0.69153  0.80446  0.01360  Biso   1.000  F 
  F33      1.0000 0.59851  0.79240  0.84930  Biso   1.000  F 
  O22      1.0000 0.73251  0.80454  0.73380  Biso   1.000  O 
  O23      1.0000 0.80471  0.65118  0.59240  Biso   1.000  O 
  C45      1.0000 0.85374  0.68599  0.65390  Biso   1.000  C 
  C46      1.0000 0.91634  0.64784  0.73060  Biso   1.000  C 
  F34      1.0000 0.95111  0.63150  0.62310  Biso   1.000  F 
  F35      1.0000 0.90093  0.59249  0.79750  Biso   1.000  F 
  F36      1.0000 0.95321  0.68192  0.84430  Biso   1.000  F 
  O24      1.0000 0.85803  0.74790  0.65460  Biso   1.000  O 
  O25      1.0000 0.76749  0.69546  0.26620  Biso   1.000  O 
  C47      1.0000 0.80534  0.74100  0.24420  Biso   1.000  C 
  C48      1.0000 0.84248  0.73310  0.10010  Biso   1.000  C 
  F37      1.0000 0.80847  0.69554  0.98640  Biso   1.000  F 
  F38      1.0000 0.85185  0.79130  0.03450  Biso   1.000  F 
  F39      1.0000 0.90149  0.70760  0.15070  Biso   1.000  F 
  O26      1.0000 0.82030  0.79261  0.32880  Biso   1.000  O 
  C49      1.0000 0.97173  0.06039  0.93590  Biso   1.000  C 
  S4       1.0000 0.00000  0.17266  0.00000  Biso   1.000  S 
  N14      1.0000 0.95133  0.12105  0.88940  Biso   1.000  N 
  N15      1.0000 0.04867  0.12105  0.11060  Biso   1.000  N 
  C50      1.0000 0.02827  0.06039  0.06410  Biso   1.000  C 
  N16      1.0000 0.04867  0.87895  0.11060  Biso   1.000  N 
  O27      1.0000 0.17970  0.20739  0.67120  Biso   1.000  O 
  C51      1.0000 0.19466  0.25900  0.75580  Biso   1.000  C 
  C52      1.0000 0.15752  0.26690  0.89990  Biso   1.000  C 
  F40      1.0000 0.14815  0.20870  0.96550  Biso   1.000  F 
  F41      1.0000 0.19153  0.30446  0.01360  Biso   1.000  F 
  F42      1.0000 0.09851  0.29240  0.84930  Biso   1.000  F 
  O28      1.0000 0.23251  0.30454  0.73380  Biso   1.000  O 
  O29      1.0000 0.30471  0.15118  0.59240  Biso   1.000  O 
  C53      1.0000 0.35374  0.18599  0.65390  Biso   1.000  C 
  C54      1.0000 0.41634  0.14784  0.73060  Biso   1.000  C 
  F43      1.0000 0.45111  0.13150  0.62310  Biso   1.000  F 
  F44      1.0000 0.40093  0.09249  0.79750  Biso   1.000  F 
  F45      1.0000 0.45321  0.18192  0.84430  Biso   1.000  F 
  O30      1.0000 0.35803  0.24790  0.65460  Biso   1.000  O 
  O31      1.0000 0.26749  0.19546  0.26620  Biso   1.000  O 
  C55      1.0000 0.30534  0.24100  0.24420  Biso   1.000  C 
  C56      1.0000 0.34248  0.23310  0.10010  Biso   1.000  C 
  F46      1.0000 0.30847  0.19554  0.98640  Biso   1.000  F 
  F47      1.0000 0.35185  0.29130  0.03450  Biso   1.000  F 
  F48      1.0000 0.40149  0.20760  0.15070  Biso   1.000  F 
  O32      1.0000 0.32030  0.29261  0.32880  Biso   1.000  O 
