data_image0
_cell_length_a       6.61029
_cell_length_b       17.8984
_cell_length_c       11.0989
_cell_angle_alpha    90
_cell_angle_beta     91.2461
_cell_angle_gamma    90

_symmetry_space_group_name_H-M    "P 1"
_symmetry_int_tables_number       1

loop_
  _symmetry_equiv_pos_as_xyz
  'x, y, z'

loop_
  _atom_site_label
  _atom_site_occupancy
  _atom_site_fract_x
  _atom_site_fract_y
  _atom_site_fract_z
  _atom_site_thermal_displace_type
  _atom_site_B_iso_or_equiv
  _atom_site_type_symbol
  Al1      1.0000 0.22970  0.22389  0.25430  Biso   1.000  Al
  O1       1.0000 0.17600  0.14920  0.37930  Biso   1.000  O 
  C1       1.0000 0.99091  0.13378  0.40133  Biso   1.000  C 
  O2       1.0000 0.81820  0.15050  0.36320  Biso   1.000  O 
  Al2      1.0000 0.75430  0.22322  0.24570  Biso   1.000  Al
  O3       1.0000 0.50290  0.23240  0.32070  Biso   1.000  O 
  O4       1.0000 0.63630  0.29573  0.13950  Biso   1.000  O 
  C2       1.0000 0.48399  0.34025  0.14249  Biso   1.000  C 
  H1       1.0000 0.48946  0.36742  0.23029  Biso   1.000  H 
  O5       1.0000 0.32860  0.29650  0.14150  Biso   1.000  O 
  C3       1.0000 0.47988  0.40130  0.04959  Biso   1.000  C 
  H2       1.0000 0.44873  0.37613  0.96181  Biso   1.000  H 
  C4       1.0000 0.67897  0.44358  0.04356  Biso   1.000  C 
  H3       1.0000 0.71315  0.46844  0.13121  Biso   1.000  H 
  H4       1.0000 0.79878  0.40470  0.02049  Biso   1.000  H 
  C5       1.0000 0.66717  0.50499  0.94918  Biso   1.000  C 
  H5       1.0000 0.64313  0.47970  0.86078  Biso   1.000  H 
  C6       1.0000 0.49455  0.55897  0.97298  Biso   1.000  C 
  C7       1.0000 0.48809  0.62283  0.88474  Biso   1.000  C 
  O6       1.0000 0.63550  0.64520  0.83170  Biso   1.000  O 
  Al3      1.0000 0.77030  0.72389  0.74570  Biso   1.000  Al
  O7       1.0000 0.49710  0.73240  0.67930  Biso   1.000  O 
  Al4      1.0000 0.24570  0.72322  0.75430  Biso   1.000  Al
  O8       1.0000 0.18180  0.65050  0.63680  Biso   1.000  O 
  C8       1.0000 0.00909  0.63377  0.59867  Biso   1.000  C 
  C9       1.0000 0.99478  0.56649  0.51694  Biso   1.000  C 
  H6       1.0000 0.93238  0.58555  0.43068  Biso   1.000  H 
  C10      1.0000 0.84598  0.51030  0.56757  Biso   1.000  C 
  H7       1.0000 0.90017  0.49308  0.65667  Biso   1.000  H 
  C11      1.0000 0.82168  0.44130  0.48900  Biso   1.000  C 
  H8       1.0000 0.76248  0.45750  0.40047  Biso   1.000  H 
  H9       1.0000 0.71695  0.40265  0.53069  Biso   1.000  H 
  C12      1.0000 0.02489  0.40370  0.47570  Biso   1.000  C 
  C13      1.0000 0.01624  0.32925  0.41261  Biso   1.000  C 
  H10      1.0000 0.02034  0.29086  0.48875  Biso   1.000  H 
  O9       1.0000 0.88480  0.29850  0.34400  Biso   1.000  O 
  O10      1.0000 0.16600  0.30830  0.35570  Biso   1.000  O 
  H11      1.0000 0.08495  0.39352  0.56636  Biso   1.000  H 
  C14      1.0000 0.16799  0.45824  0.41621  Biso   1.000  C 
  H12      1.0000 0.10591  0.47359  0.32795  Biso   1.000  H 
  H13      1.0000 0.31447  0.43145  0.40571  Biso   1.000  H 
  C15      1.0000 0.19568  0.52875  0.49219  Biso   1.000  C 
  H14      1.0000 0.29152  0.56772  0.44423  Biso   1.000  H 
  H15      1.0000 0.26853  0.51375  0.57776  Biso   1.000  H 
  H16      1.0000 0.69904  0.53723  0.57495  Biso   1.000  H 
  O11      1.0000 0.82400  0.64920  0.62070  Biso   1.000  O 
  O12      1.0000 0.36370  0.79573  0.86050  Biso   1.000  O 
  C16      1.0000 0.51601  0.84025  0.85751  Biso   1.000  C 
  H17      1.0000 0.51054  0.86742  0.76971  Biso   1.000  H 
  O13      1.0000 0.67140  0.79650  0.85850  Biso   1.000  O 
  C17      1.0000 0.52012  0.90130  0.95041  Biso   1.000  C 
  C18      1.0000 0.32103  0.94358  0.95644  Biso   1.000  C 
  H18      1.0000 0.20122  0.90470  0.97951  Biso   1.000  H 
  H19      1.0000 0.28685  0.96844  0.86879  Biso   1.000  H 
  C19      1.0000 0.33283  0.00499  0.05082  Biso   1.000  C 
  H20      1.0000 0.19079  0.03583  0.04932  Biso   1.000  H 
  C20      1.0000 0.50545  0.05897  0.02702  Biso   1.000  C 
  C21      1.0000 0.51191  0.12283  0.11526  Biso   1.000  C 
  O14      1.0000 0.36450  0.14520  0.16830  Biso   1.000  O 
  O15      1.0000 0.68150  0.13970  0.15750  Biso   1.000  O 
  H21      1.0000 0.47587  0.08314  0.93834  Biso   1.000  H 
  C22      1.0000 0.70338  0.01674  0.01976  Biso   1.000  C 
  H22      1.0000 0.73814  0.99112  0.10676  Biso   1.000  H 
  H23      1.0000 0.82348  0.05559  0.99704  Biso   1.000  H 
  C23      1.0000 0.68886  0.95637  0.92428  Biso   1.000  C 
  H24      1.0000 0.65875  0.98233  0.83699  Biso   1.000  H 
  H25      1.0000 0.83201  0.92633  0.92214  Biso   1.000  H 
  H26      1.0000 0.35687  0.97970  0.13922  Biso   1.000  H 
  H27      1.0000 0.55127  0.87613  0.03819  Biso   1.000  H 
  O16      1.0000 0.31850  0.63970  0.84250  Biso   1.000  O 
  O17      1.0000 0.11520  0.79850  0.65600  Biso   1.000  O 
  C24      1.0000 0.98376  0.82925  0.58739  Biso   1.000  C 
  H28      1.0000 0.97966  0.79086  0.51125  Biso   1.000  H 
  O18      1.0000 0.83400  0.80830  0.64430  Biso   1.000  O 
  C25      1.0000 0.97511  0.90370  0.52430  Biso   1.000  C 
  H29      1.0000 0.91505  0.89352  0.43364  Biso   1.000  H 
  C26      1.0000 0.17832  0.94130  0.51100  Biso   1.000  C 
  H30      1.0000 0.28305  0.90265  0.46931  Biso   1.000  H 
  H31      1.0000 0.23752  0.95750  0.59953  Biso   1.000  H 
  C27      1.0000 0.15402  0.01030  0.43243  Biso   1.000  C 
  H32      1.0000 0.30096  0.03723  0.42505  Biso   1.000  H 
  C28      1.0000 0.00522  0.06649  0.48306  Biso   1.000  C 
  H33      1.0000 0.06762  0.08555  0.56932  Biso   1.000  H 
  C29      1.0000 0.80432  0.02875  0.50781  Biso   1.000  C 
  H34      1.0000 0.73147  0.01375  0.42224  Biso   1.000  H 
  H35      1.0000 0.70848  0.06772  0.55577  Biso   1.000  H 
  C30      1.0000 0.83201  0.95824  0.58379  Biso   1.000  C 
  H36      1.0000 0.68553  0.93145  0.59429  Biso   1.000  H 
  H37      1.0000 0.89409  0.97359  0.67205  Biso   1.000  H 
  H38      1.0000 0.09983  0.99308  0.34333  Biso   1.000  H 
  O19      1.0000 0.01260  0.72100  0.84490  Biso   1.000  O 
  C31      1.0000 0.29662  0.51674  0.98024  Biso   1.000  C 
  H39      1.0000 0.26186  0.49112  0.89324  Biso   1.000  H 
  C32      1.0000 0.31114  0.45637  0.07572  Biso   1.000  C 
  H40      1.0000 0.16799  0.42633  0.07786  Biso   1.000  H 
  H41      1.0000 0.34125  0.48233  0.16301  Biso   1.000  H 
  H42      1.0000 0.17652  0.55559  0.00296  Biso   1.000  H 
  H43      1.0000 0.52413  0.58314  0.06166  Biso   1.000  H 
  H44      1.0000 0.80921  0.53583  0.95068  Biso   1.000  H 
  O20      1.0000 0.98740  0.22100  0.15510  Biso   1.000  O 
