data_image0
_cell_length_a       12.4678
_cell_length_b       13.6806
_cell_length_c       20.385
_cell_angle_alpha    81.599
_cell_angle_beta     88.542
_cell_angle_gamma    82.967

_symmetry_space_group_name_H-M    "P 1"
_symmetry_int_tables_number       1

loop_
  _symmetry_equiv_pos_as_xyz
  'x, y, z'

loop_
  _atom_site_label
  _atom_site_occupancy
  _atom_site_fract_x
  _atom_site_fract_y
  _atom_site_fract_z
  _atom_site_thermal_displace_type
  _atom_site_B_iso_or_equiv
  _atom_site_type_symbol
  Ga1      1.0000 0.32040  0.39753  0.86597  Biso   1.000  Ga
  S1       1.0000 0.27720  0.27376  0.94248  Biso   1.000  S 
  Ga2      1.0000 0.23724  0.16448  0.87831  Biso   1.000  Ga
  S2       1.0000 0.09438  0.23655  0.80963  Biso   1.000  S 
  Ga3      1.0000 0.14346  0.37575  0.74098  Biso   1.000  Ga
  S3       1.0000 0.29207  0.33354  0.67585  Biso   1.000  S 
  Ga4      1.0000 0.43295  0.26071  0.74620  Biso   1.000  Ga
  S4       1.0000 0.38648  0.12026  0.81406  Biso   1.000  S 
  Ga5      1.0000 0.34535  0.00713  0.74683  Biso   1.000  Ga
  S5       1.0000 0.20284  0.07696  0.67758  Biso   1.000  S 
  Ga6      1.0000 0.24969  0.21846  0.61014  Biso   1.000  Ga
  S6       1.0000 0.10912  0.28123  0.54435  Biso   1.000  S 
  Ga7      1.0000 0.98191  0.31634  0.61995  Biso   1.000  Ga
  N1       1.0000 0.84830  0.36830  0.56090  Biso   1.000  N 
  C1       1.0000 0.83130  0.46500  0.53510  Biso   1.000  C 
  C2       1.0000 0.73310  0.50820  0.50750  Biso   1.000  C 
  H1       1.0000 0.72230  0.58140  0.49180  Biso   1.000  H 
  C3       1.0000 0.64910  0.45150  0.50120  Biso   1.000  C 
  C4       1.0000 0.54260  0.49550  0.47640  Biso   1.000  C 
  H2       1.0000 0.51861  0.45161  0.44000  Biso   1.000  H 
  H3       1.0000 0.53050  0.56730  0.45680  Biso   1.000  H 
  C5       1.0000 0.45740  0.50450  0.52360  Biso   1.000  C 
  H4       1.0000 0.46950  0.43270  0.54320  Biso   1.000  H 
  H5       1.0000 0.48139  0.54839  0.56000  Biso   1.000  H 
  C6       1.0000 0.35090  0.54850  0.49880  Biso   1.000  C 
  C7       1.0000 0.33200  0.64860  0.47120  Biso   1.000  C 
  C8       1.0000 0.23400  0.68610  0.44100  Biso   1.000  C 
  H6       1.0000 0.22410  0.75720  0.41960  Biso   1.000  H 
  N2       1.0000 0.15170  0.63170  0.43910  Biso   1.000  N 
  C9       1.0000 0.16870  0.53500  0.46490  Biso   1.000  C 
  C10      1.0000 0.26690  0.49180  0.49250  Biso   1.000  C 
  H7       1.0000 0.27770  0.41860  0.50820  Biso   1.000  H 
  H8       1.0000 0.10880  0.49290  0.46420  Biso   1.000  H 
  Ga8      1.0000 0.01809  0.68366  0.38005  Biso   1.000  Ga
  S7       1.0000 0.08483  0.81296  0.31951  Biso   1.000  S 
  Ga9      1.0000 0.94387  0.87877  0.25635  Biso   1.000  Ga
  S8       1.0000 0.90562  0.76345  0.19037  Biso   1.000  S 
  Ga10     1.0000 0.85654  0.62425  0.25902  Biso   1.000  Ga
  S9       1.0000 0.99458  0.55729  0.32526  Biso   1.000  S 
  S10      1.0000 0.81440  0.51374  0.19650  Biso   1.000  S 
  Ga11     1.0000 0.67960  0.60247  0.13403  Biso   1.000  Ga
  N3       1.0000 0.64310  0.49840  0.07550  Biso   1.000  N 
  C11      1.0000 0.68220  0.50280  0.01320  Biso   1.000  C 
  C12      1.0000 0.65770  0.43500  0.97250  Biso   1.000  C 
  C13      1.0000 0.70110  0.45240  0.90210  Biso   1.000  C 
  H9       1.0000 0.63950  0.46430  0.87030  Biso   1.000  H 
  H10      1.0000 0.75060  0.39250  0.89320  Biso   1.000  H 
  H11      1.0000 0.74160  0.51180  0.89650  Biso   1.000  H 
  C14      1.0000 0.59760  0.36290  0.00300  Biso   1.000  C 
  C15      1.0000 0.56270  0.35510  0.06800  Biso   1.000  C 
  C16      1.0000 0.49390  0.27400  0.09140  Biso   1.000  C 
  H12      1.0000 0.48670  0.23370  0.05490  Biso   1.000  H 
  H13      1.0000 0.42060  0.30430  0.10430  Biso   1.000  H 
  H14      1.0000 0.52840  0.23010  0.13060  Biso   1.000  H 
  C17      1.0000 0.59040  0.42530  0.10460  Biso   1.000  C 
  H15      1.0000 0.57080  0.42100  0.15270  Biso   1.000  H 
  H16      1.0000 0.57790  0.31250  0.97590  Biso   1.000  H 
  H17      1.0000 0.72920  0.55510  0.99590  Biso   1.000  H 
  S11      1.0000 0.52317  0.63238  0.18897  Biso   1.000  S 
  Ga12     1.0000 0.56705  0.73929  0.25380  Biso   1.000  Ga
  S12      1.0000 0.42181  0.78387  0.31308  Biso   1.000  S 
  Ga13     1.0000 0.48681  0.88794  0.37351  Biso   1.000  Ga
  N4       1.0000 0.34860  0.93770  0.42160  Biso   1.000  N 
  C18      1.0000 0.26120  0.96570  0.38390  Biso   1.000  C 
  H18      1.0000 0.26760  0.96410  0.33510  Biso   1.000  H 
  C19      1.0000 0.16220  0.99670  0.41060  Biso   1.000  C 
  H19      1.0000 0.09830  0.01650  0.38090  Biso   1.000  H 
  C20      1.0000 0.15020  0.00100  0.47790  Biso   1.000  C 
  C21      1.0000 0.04300  0.02750  0.50560  Biso   1.000  C 
  H20      1.0000 0.03020  0.08370  0.53230  Biso   1.000  H 
  C22      1.0000 0.95700  0.97250  0.49440  Biso   1.000  C 
  H21      1.0000 0.96980  0.91630  0.46770  Biso   1.000  H 
  C23      1.0000 0.84980  0.99900  0.52210  Biso   1.000  C 
  C24      1.0000 0.75540  0.02930  0.48480  Biso   1.000  C 
  H22      1.0000 0.75900  0.02620  0.43610  Biso   1.000  H 
  C25      1.0000 0.65690  0.06350  0.51240  Biso   1.000  C 
  H23      1.0000 0.59220  0.08810  0.48390  Biso   1.000  H 
  N5       1.0000 0.65140  0.06230  0.57840  Biso   1.000  N 
  C26      1.0000 0.73880  0.03430  0.61610  Biso   1.000  C 
  C27      1.0000 0.83780  0.00330  0.58940  Biso   1.000  C 
  H24      1.0000 0.90170  0.98350  0.61910  Biso   1.000  H 
  H25      1.0000 0.73240  0.03590  0.66490  Biso   1.000  H 
  Ga14     1.0000 0.51319  0.11206  0.62649  Biso   1.000  Ga
  S13      1.0000 0.39494  0.18129  0.54749  Biso   1.000  S 
  S14      1.0000 0.57819  0.21613  0.68692  Biso   1.000  S 
  S15      1.0000 0.48527  0.96293  0.68312  Biso   1.000  S 
  C28      1.0000 0.24460  0.97070  0.51520  Biso   1.000  C 
  H26      1.0000 0.24100  0.97380  0.56390  Biso   1.000  H 
  C29      1.0000 0.34310  0.93650  0.48760  Biso   1.000  C 
  H27      1.0000 0.40780  0.91190  0.51610  Biso   1.000  H 
  S16      1.0000 0.60506  0.81871  0.45251  Biso   1.000  S 
  Ga15     1.0000 0.75031  0.78154  0.38986  Biso   1.000  Ga
  S17      1.0000 0.70793  0.66646  0.32415  Biso   1.000  S 
  S18      1.0000 0.79716  0.92304  0.32242  Biso   1.000  S 
  Ga16     1.0000 0.65465  0.99287  0.25317  Biso   1.000  Ga
  S19      1.0000 0.61352  0.87974  0.18594  Biso   1.000  S 
  Ga17     1.0000 0.76276  0.83552  0.12169  Biso   1.000  Ga
  S20      1.0000 0.72280  0.72624  0.05752  Biso   1.000  S 
  S21      1.0000 0.81280  0.96842  0.05598  Biso   1.000  S 
  Ga18     1.0000 0.84039  0.06501  0.13208  Biso   1.000  Ga
  N6       1.0000 0.88680  0.19050  0.07840  Biso   1.000  N 
  C30      1.0000 0.93480  0.19240  0.01860  Biso   1.000  C 
  C31      1.0000 0.97260  0.27840  0.98730  Biso   1.000  C 
  C32      1.0000 0.96420  0.36610  0.01520  Biso   1.000  C 
  C33      1.0000 0.91420  0.36010  0.07720  Biso   1.000  C 
  H28      1.0000 0.90610  0.41950  0.10110  Biso   1.000  H 
  C34      1.0000 0.87560  0.27380  0.10630  Biso   1.000  C 
  H29      1.0000 0.83750  0.27340  0.15010  Biso   1.000  H 
  C35      1.0000 0.00340  0.45790  0.98290  Biso   1.000  C 
  H30      1.0000 0.03480  0.46150  0.93710  Biso   1.000  H 
  C36      1.0000 0.99660  0.54210  0.01710  Biso   1.000  C 
  H31      1.0000 0.96520  0.53850  0.06290  Biso   1.000  H 
  C37      1.0000 0.03580  0.63390  0.98480  Biso   1.000  C 
  C38      1.0000 0.08580  0.63990  0.92280  Biso   1.000  C 
  C39      1.0000 0.12440  0.72620  0.89370  Biso   1.000  C 
  H32      1.0000 0.16250  0.72660  0.84990  Biso   1.000  H 
  N7       1.0000 0.11320  0.80950  0.92160  Biso   1.000  N 
  C40      1.0000 0.06520  0.80760  0.98140  Biso   1.000  C 
  C41      1.0000 0.02740  0.72160  0.01270  Biso   1.000  C 
  H33      1.0000 0.99260  0.72240  0.05740  Biso   1.000  H 
  H34      1.0000 0.05660  0.86870  0.00350  Biso   1.000  H 
  Ga19     1.0000 0.15961  0.93499  0.86792  Biso   1.000  Ga
  S22      1.0000 0.01056  0.98409  0.80630  Biso   1.000  S 
  Ga20     1.0000 0.05613  0.12123  0.74365  Biso   1.000  Ga
  S23      1.0000 0.91517  0.18704  0.68049  Biso   1.000  S 
  S24      1.0000 0.30317  0.87232  0.81276  Biso   1.000  S 
  S25      1.0000 0.18720  0.03158  0.94402  Biso   1.000  S 
  H35      1.0000 0.09390  0.58050  0.89890  Biso   1.000  H 
  H36      1.0000 0.00740  0.27760  0.94260  Biso   1.000  H 
  H37      1.0000 0.94340  0.13130  0.99650  Biso   1.000  H 
  S26      1.0000 0.69683  0.12768  0.18724  Biso   1.000  S 
  S27      1.0000 0.98944  0.01591  0.19370  Biso   1.000  S 
  S28      1.0000 0.51473  0.03707  0.31688  Biso   1.000  S 
  S29      1.0000 0.89088  0.71877  0.45565  Biso   1.000  S 
  H38      1.0000 0.38920  0.69330  0.47320  Biso   1.000  H 
  C42      1.0000 0.66800  0.35140  0.52880  Biso   1.000  C 
  H39      1.0000 0.61080  0.30670  0.52680  Biso   1.000  H 
  C43      1.0000 0.76600  0.31390  0.55900  Biso   1.000  C 
  H40      1.0000 0.77590  0.24280  0.58040  Biso   1.000  H 
  H41      1.0000 0.89120  0.50710  0.53580  Biso   1.000  H 
  S30      1.0000 0.00542  0.44271  0.67474  Biso   1.000  S 
  S31      1.0000 0.47683  0.36762  0.81103  Biso   1.000  S 
  S32      1.0000 0.18560  0.48626  0.80350  Biso   1.000  S 
  N8       1.0000 0.35690  0.50160  0.92450  Biso   1.000  N 
  C44      1.0000 0.40960  0.57470  0.89540  Biso   1.000  C 
  H42      1.0000 0.42920  0.57900  0.84730  Biso   1.000  H 
  C45      1.0000 0.43730  0.64490  0.93200  Biso   1.000  C 
  C46      1.0000 0.40240  0.63710  0.99700  Biso   1.000  C 
  C47      1.0000 0.34230  0.56500  0.02750  Biso   1.000  C 
  C48      1.0000 0.29890  0.54760  0.09790  Biso   1.000  C 
  H43      1.0000 0.24940  0.60750  0.10680  Biso   1.000  H 
  H44      1.0000 0.25840  0.48820  0.10350  Biso   1.000  H 
  H45      1.0000 0.36050  0.53570  0.12970  Biso   1.000  H 
  C49      1.0000 0.31780  0.49720  0.98680  Biso   1.000  C 
  H46      1.0000 0.27080  0.44490  0.00410  Biso   1.000  H 
  H47      1.0000 0.42210  0.68750  0.02410  Biso   1.000  H 
  C50      1.0000 0.50610  0.72600  0.90860  Biso   1.000  C 
  H48      1.0000 0.47160  0.76990  0.86940  Biso   1.000  H 
  H49      1.0000 0.57940  0.69570  0.89570  Biso   1.000  H 
  H50      1.0000 0.51330  0.76630  0.94510  Biso   1.000  H 
