data_image0
_cell_length_a       7.7094
_cell_length_b       7.7094
_cell_length_c       20.3266
_cell_angle_alpha    90
_cell_angle_beta     90
_cell_angle_gamma    90

_symmetry_space_group_name_H-M    "P 1"
_symmetry_int_tables_number       1

loop_
  _symmetry_equiv_pos_as_xyz
  'x, y, z'

loop_
  _atom_site_label
  _atom_site_occupancy
  _atom_site_fract_x
  _atom_site_fract_y
  _atom_site_fract_z
  _atom_site_thermal_displace_type
  _atom_site_B_iso_or_equiv
  _atom_site_type_symbol
  Zn1      1.0000 0.81850  0.81850  0.50000  Biso   1.000  Zn
  Zn2      1.0000 0.68150  0.31850  0.25000  Biso   1.000  Zn
  Zn3      1.0000 0.18150  0.18150  0.00000  Biso   1.000  Zn
  Zn4      1.0000 0.31850  0.68150  0.75000  Biso   1.000  Zn
  O1       1.0000 0.90040  0.64330  0.56540  Biso   1.000  O 
  O2       1.0000 0.85670  0.40040  0.31540  Biso   1.000  O 
  O3       1.0000 0.09960  0.35670  0.06540  Biso   1.000  O 
  O4       1.0000 0.14330  0.59960  0.81540  Biso   1.000  O 
  O5       1.0000 0.59960  0.14330  0.18460  Biso   1.000  O 
  O6       1.0000 0.64330  0.90040  0.43460  Biso   1.000  O 
  O7       1.0000 0.40040  0.85670  0.68460  Biso   1.000  O 
  O8       1.0000 0.35670  0.09960  0.93460  Biso   1.000  O 
  C1       1.0000 0.85800  0.50700  0.53370  Biso   1.000  C 
  C2       1.0000 0.99300  0.35800  0.28370  Biso   1.000  C 
  C3       1.0000 0.14200  0.49300  0.03370  Biso   1.000  C 
  C4       1.0000 0.00700  0.64200  0.78370  Biso   1.000  C 
  C5       1.0000 0.64200  0.00700  0.21630  Biso   1.000  C 
  C6       1.0000 0.50700  0.85800  0.46630  Biso   1.000  C 
  C7       1.0000 0.35800  0.99300  0.71630  Biso   1.000  C 
  C8       1.0000 0.49300  0.14200  0.96630  Biso   1.000  C 
  O9       1.0000 0.79530  0.51530  0.47890  Biso   1.000  O 
  O10      1.0000 0.98470  0.29530  0.22890  Biso   1.000  O 
  O11      1.0000 0.20470  0.48470  0.97890  Biso   1.000  O 
  O12      1.0000 0.01530  0.70470  0.72890  Biso   1.000  O 
  O13      1.0000 0.70470  0.01530  0.27110  Biso   1.000  O 
  O14      1.0000 0.51530  0.79530  0.52110  Biso   1.000  O 
  O15      1.0000 0.29530  0.98470  0.77110  Biso   1.000  O 
  O16      1.0000 0.48470  0.20470  0.02110  Biso   1.000  O 
  C9       1.0000 0.33700  0.88410  0.43240  Biso   1.000  C 
  C10      1.0000 0.61590  0.83700  0.18240  Biso   1.000  C 
  C11      1.0000 0.66300  0.11590  0.93240  Biso   1.000  C 
  C12      1.0000 0.38410  0.16300  0.68240  Biso   1.000  C 
  C13      1.0000 0.16300  0.38410  0.31760  Biso   1.000  C 
  C14      1.0000 0.88410  0.33700  0.56760  Biso   1.000  C 
  C15      1.0000 0.83700  0.61590  0.81760  Biso   1.000  C 
  C16      1.0000 0.11590  0.66300  0.06760  Biso   1.000  C 
  C17      1.0000 0.32560  0.93650  0.36850  Biso   1.000  C 
  C18      1.0000 0.56350  0.82560  0.11850  Biso   1.000  C 
  C19      1.0000 0.67440  0.06350  0.86850  Biso   1.000  C 
  C20      1.0000 0.43650  0.17440  0.61850  Biso   1.000  C 
  C21      1.0000 0.17440  0.43650  0.38150  Biso   1.000  C 
  C22      1.0000 0.93650  0.32560  0.63150  Biso   1.000  C 
  C23      1.0000 0.82560  0.56350  0.88150  Biso   1.000  C 
  C24      1.0000 0.06350  0.67440  0.13150  Biso   1.000  C 
  C25      1.0000 0.16440  0.94900  0.34000  Biso   1.000  C 
  C26      1.0000 0.55100  0.66440  0.09000  Biso   1.000  C 
  C27      1.0000 0.83560  0.05100  0.84000  Biso   1.000  C 
  C28      1.0000 0.44900  0.33560  0.59000  Biso   1.000  C 
  C29      1.0000 0.33560  0.44900  0.41000  Biso   1.000  C 
  C30      1.0000 0.94900  0.16440  0.66000  Biso   1.000  C 
  C31      1.0000 0.66440  0.55100  0.91000  Biso   1.000  C 
  C32      1.0000 0.05100  0.83560  0.16000  Biso   1.000  C 
  C33      1.0000 0.02200  0.91030  0.37810  Biso   1.000  C 
  C34      1.0000 0.58970  0.52200  0.12810  Biso   1.000  C 
  C35      1.0000 0.97800  0.08970  0.87810  Biso   1.000  C 
  C36      1.0000 0.41030  0.47800  0.62810  Biso   1.000  C 
  C37      1.0000 0.47800  0.41030  0.37190  Biso   1.000  C 
  C38      1.0000 0.91030  0.02200  0.62190  Biso   1.000  C 
  C39      1.0000 0.52200  0.58970  0.87190  Biso   1.000  C 
  C40      1.0000 0.08970  0.97800  0.12190  Biso   1.000  C 
  N1       1.0000 0.03140  0.86320  0.44010  Biso   1.000  N 
  N2       1.0000 0.63680  0.53140  0.19010  Biso   1.000  N 
  N3       1.0000 0.96860  0.13680  0.94010  Biso   1.000  N 
  N4       1.0000 0.36320  0.46860  0.69010  Biso   1.000  N 
  N5       1.0000 0.46860  0.36320  0.30990  Biso   1.000  N 
  N6       1.0000 0.86320  0.03140  0.55990  Biso   1.000  N 
  N7       1.0000 0.53140  0.63680  0.80990  Biso   1.000  N 
  N8       1.0000 0.13680  0.96860  0.05990  Biso   1.000  N 
  C41      1.0000 0.19130  0.85120  0.46670  Biso   1.000  C 
  C42      1.0000 0.64880  0.69130  0.21670  Biso   1.000  C 
  C43      1.0000 0.80870  0.14880  0.96670  Biso   1.000  C 
  C44      1.0000 0.35120  0.30870  0.71670  Biso   1.000  C 
  C45      1.0000 0.30870  0.35120  0.28330  Biso   1.000  C 
  C46      1.0000 0.85120  0.19130  0.53330  Biso   1.000  C 
  C47      1.0000 0.69130  0.64880  0.78330  Biso   1.000  C 
  C48      1.0000 0.14880  0.80870  0.03330  Biso   1.000  C 
  H1       1.0000 0.42780  0.96310  0.34360  Biso   1.000  H 
  H2       1.0000 0.53690  0.92780  0.09360  Biso   1.000  H 
  H3       1.0000 0.57220  0.03690  0.84360  Biso   1.000  H 
  H4       1.0000 0.46310  0.07220  0.59360  Biso   1.000  H 
  H5       1.0000 0.07220  0.46310  0.40640  Biso   1.000  H 
  H6       1.0000 0.96310  0.42780  0.65640  Biso   1.000  H 
  H7       1.0000 0.92780  0.53690  0.90640  Biso   1.000  H 
  H8       1.0000 0.03690  0.57220  0.15640  Biso   1.000  H 
  H9       1.0000 0.15190  0.98380  0.29560  Biso   1.000  H 
  H10      1.0000 0.51620  0.65190  0.04560  Biso   1.000  H 
  H11      1.0000 0.84810  0.01620  0.79560  Biso   1.000  H 
  H12      1.0000 0.48380  0.34810  0.54560  Biso   1.000  H 
  H13      1.0000 0.34810  0.48380  0.45440  Biso   1.000  H 
  H14      1.0000 0.98380  0.15190  0.70440  Biso   1.000  H 
  H15      1.0000 0.65190  0.51620  0.95440  Biso   1.000  H 
  H16      1.0000 0.01620  0.84810  0.20440  Biso   1.000  H 
  H17      1.0000 0.90900  0.91950  0.35820  Biso   1.000  H 
  H18      1.0000 0.58050  0.40900  0.10820  Biso   1.000  H 
  H19      1.0000 0.09100  0.08050  0.85820  Biso   1.000  H 
  H20      1.0000 0.41950  0.59100  0.60820  Biso   1.000  H 
  H21      1.0000 0.59100  0.41950  0.39180  Biso   1.000  H 
  H22      1.0000 0.91950  0.90900  0.64180  Biso   1.000  H 
  H23      1.0000 0.40900  0.58050  0.89180  Biso   1.000  H 
  H24      1.0000 0.08050  0.09100  0.14180  Biso   1.000  H 
  H25      1.0000 0.20070  0.81790  0.51170  Biso   1.000  H 
  H26      1.0000 0.68210  0.70070  0.26170  Biso   1.000  H 
  H27      1.0000 0.79930  0.18210  0.01170  Biso   1.000  H 
  H28      1.0000 0.31790  0.29930  0.76170  Biso   1.000  H 
  H29      1.0000 0.29930  0.31790  0.23830  Biso   1.000  H 
  H30      1.0000 0.81790  0.20070  0.48830  Biso   1.000  H 
  H31      1.0000 0.70070  0.68210  0.73830  Biso   1.000  H 
  H32      1.0000 0.18210  0.79930  0.98830  Biso   1.000  H 
