data_image0
_cell_length_a       11.9429
_cell_length_b       8.6874
_cell_length_c       24.1577
_cell_angle_alpha    90
_cell_angle_beta     100.984
_cell_angle_gamma    90

_symmetry_space_group_name_H-M    "P 1"
_symmetry_int_tables_number       1

loop_
  _symmetry_equiv_pos_as_xyz
  'x, y, z'

loop_
  _atom_site_label
  _atom_site_occupancy
  _atom_site_fract_x
  _atom_site_fract_y
  _atom_site_fract_z
  _atom_site_thermal_displace_type
  _atom_site_B_iso_or_equiv
  _atom_site_type_symbol
  Ag1      1.0000 0.22688  0.78361  0.81548  Biso   1.000  Ag
  N1       1.0000 0.21000  0.63470  0.74350  Biso   1.000  N 
  C1       1.0000 0.10990  0.55210  0.72900  Biso   1.000  C 
  H1       1.0000 0.05290  0.56510  0.75000  Biso   1.000  H 
  C2       1.0000 0.09200  0.45070  0.68420  Biso   1.000  C 
  C3       1.0000 0.17870  0.41740  0.65510  Biso   1.000  C 
  C4       1.0000 0.16240  0.29630  0.60980  Biso   1.000  C 
  C5       1.0000 0.09190  0.35370  0.55390  Biso   1.000  C 
  H2       1.0000 0.02050  0.39710  0.56020  Biso   1.000  H 
  H3       1.0000 0.13350  0.43340  0.53820  Biso   1.000  H 
  C6       1.0000 0.06760  0.21660  0.51200  Biso   1.000  C 
  H4       1.0000 0.13900  0.16910  0.50780  Biso   1.000  H 
  H5       1.0000 0.02210  0.13980  0.52680  Biso   1.000  H 
  C7       1.0000 0.00340  0.27330  0.45430  Biso   1.000  C 
  C8       1.0000 0.06080  0.29800  0.41200  Biso   1.000  C 
  H6       1.0000 0.13780  0.27380  0.41670  Biso   1.000  H 
  C9       1.0000 0.00380  0.36080  0.36140  Biso   1.000  C 
  H7       1.0000 0.04500  0.37690  0.33290  Biso   1.000  H 
  N2       1.0000 0.89550  0.39830  0.35150  Biso   1.000  N 
  C10      1.0000 0.83990  0.36680  0.39170  Biso   1.000  C 
  H8       1.0000 0.76210  0.38750  0.38570  Biso   1.000  H 
  C11      1.0000 0.89250  0.30320  0.44320  Biso   1.000  C 
  H9       1.0000 0.84890  0.28140  0.47030  Biso   1.000  H 
  Ag2      1.0000 0.82201  0.52437  0.27773  Biso   1.000  Ag
  N3       1.0000 0.75710  0.68900  0.21360  Biso   1.000  N 
  C12      1.0000 0.81740  0.73090  0.17460  Biso   1.000  C 
  C13      1.0000 0.77780  0.83590  0.13210  Biso   1.000  C 
  H10      1.0000 0.82250  0.86160  0.10590  Biso   1.000  H 
  C14      1.0000 0.67210  0.90150  0.12910  Biso   1.000  C 
  C15      1.0000 0.61170  0.86280  0.17130  Biso   1.000  C 
  H11      1.0000 0.54160  0.90830  0.17220  Biso   1.000  H 
  C16      1.0000 0.65790  0.75550  0.21190  Biso   1.000  C 
  H12      1.0000 0.61630  0.72940  0.23940  Biso   1.000  H 
  C17      1.0000 0.62250  0.00530  0.08010  Biso   1.000  C 
  C18      1.0000 0.51340  0.08710  0.08530  Biso   1.000  C 
  H13      1.0000 0.45710  0.01140  0.09110  Biso   1.000  H 
  H14      1.0000 0.52790  0.15360  0.11820  Biso   1.000  H 
  C19      1.0000 0.46470  0.18460  0.03270  Biso   1.000  C 
  H15      1.0000 0.40750  0.25430  0.04190  Biso   1.000  H 
  H16      1.0000 0.52560  0.24650  0.02280  Biso   1.000  H 
  C20      1.0000 0.41210  0.09020  0.98250  Biso   1.000  C 
  C21      1.0000 0.45690  0.08040  0.93420  Biso   1.000  C 
  H17      1.0000 0.52340  0.13400  0.93210  Biso   1.000  H 
  C22      1.0000 0.40570  0.99340  0.88910  Biso   1.000  C 
  H18      1.0000 0.43900  0.98890  0.85730  Biso   1.000  H 
  N4       1.0000 0.30990  0.91520  0.88920  Biso   1.000  N 
  C23      1.0000 0.26290  0.92100  0.93580  Biso   1.000  C 
  H19      1.0000 0.19620  0.86610  0.93620  Biso   1.000  H 
  C24      1.0000 0.31050  0.00570  0.98310  Biso   1.000  C 
  H20      1.0000 0.27650  0.00730  0.01470  Biso   1.000  H 
  H21      1.0000 0.67920  0.08210  0.07590  Biso   1.000  H 
  H22      1.0000 0.60830  0.94390  0.04600  Biso   1.000  H 
  H23      1.0000 0.88920  0.68760  0.17610  Biso   1.000  H 
  Ag3      1.0000 0.77312  0.28361  0.18452  Biso   1.000  Ag
  O1       1.0000 0.95630  0.22420  0.15110  Biso   1.000  O 
  C25      1.0000 0.01470  0.32900  0.17680  Biso   1.000  C 
  O2       1.0000 0.97270  0.42920  0.20670  Biso   1.000  O 
  C26      1.0000 0.14120  0.34270  0.17500  Biso   1.000  C 
  H24      1.0000 0.17500  0.24100  0.18030  Biso   1.000  H 
  H25      1.0000 0.17720  0.40590  0.20650  Biso   1.000  H 
  C27      1.0000 0.16860  0.41110  0.12100  Biso   1.000  C 
  C28      1.0000 0.11240  0.57450  0.10890  Biso   1.000  C 
  H26      1.0000 0.14650  0.64530  0.13840  Biso   1.000  H 
  H27      1.0000 0.03160  0.56760  0.10940  Biso   1.000  H 
  C29      1.0000 0.12820  0.63620  0.05240  Biso   1.000  C 
  H28      1.0000 0.20840  0.65870  0.05430  Biso   1.000  H 
  H29      1.0000 0.08660  0.73220  0.04510  Biso   1.000  H 
  C30      1.0000 0.08810  0.52610  0.00300  Biso   1.000  C 
  C31      1.0000 0.14380  0.37350  0.01380  Biso   1.000  C 
  H30      1.0000 0.22480  0.38440  0.01410  Biso   1.000  H 
  H31      1.0000 0.11250  0.30400  0.98340  Biso   1.000  H 
  C32      1.0000 0.12720  0.30240  0.07080  Biso   1.000  C 
  H32      1.0000 0.16900  0.20620  0.07700  Biso   1.000  H 
  H33      1.0000 0.04700  0.27970  0.06890  Biso   1.000  H 
  H34      1.0000 0.00600  0.51380  0.99740  Biso   1.000  H 
  H35      1.0000 0.10630  0.56960  0.96880  Biso   1.000  H 
  C33      1.0000 0.30320  0.42170  0.13000  Biso   1.000  C 
  H36      1.0000 0.33370  0.31800  0.13140  Biso   1.000  H 
  C34      1.0000 0.36000  0.50570  0.18170  Biso   1.000  C 
  O3       1.0000 0.40610  0.42760  0.22430  Biso   1.000  O 
  O4       1.0000 0.36080  0.65120  0.18150  Biso   1.000  O 
  H37      1.0000 0.32320  0.47210  0.09740  Biso   1.000  H 
  N5       1.0000 0.69010  0.41520  0.11080  Biso   1.000  N 
  C35      1.0000 0.73710  0.42100  0.06420  Biso   1.000  C 
  H38      1.0000 0.80380  0.36610  0.06380  Biso   1.000  H 
  C36      1.0000 0.68950  0.50570  0.01690  Biso   1.000  C 
  C37      1.0000 0.58790  0.59020  0.01750  Biso   1.000  C 
  C38      1.0000 0.54310  0.58040  0.06580  Biso   1.000  C 
  H39      1.0000 0.47660  0.63400  0.06790  Biso   1.000  H 
  C39      1.0000 0.59430  0.49340  0.11090  Biso   1.000  C 
  H40      1.0000 0.56100  0.48890  0.14270  Biso   1.000  H 
  C40      1.0000 0.53530  0.68460  0.96730  Biso   1.000  C 
  C41      1.0000 0.48660  0.58710  0.91470  Biso   1.000  C 
  H41      1.0000 0.47210  0.65360  0.88180  Biso   1.000  H 
  H42      1.0000 0.54290  0.51140  0.90890  Biso   1.000  H 
  C42      1.0000 0.37750  0.50530  0.91990  Biso   1.000  C 
  H43      1.0000 0.39170  0.44390  0.95400  Biso   1.000  H 
  C43      1.0000 0.32790  0.40150  0.87090  Biso   1.000  C 
  C44      1.0000 0.22220  0.33590  0.86790  Biso   1.000  C 
  H44      1.0000 0.17750  0.36160  0.89410  Biso   1.000  H 
  C45      1.0000 0.18260  0.23090  0.82540  Biso   1.000  C 
  H45      1.0000 0.11080  0.18760  0.82390  Biso   1.000  H 
  N6       1.0000 0.24290  0.18900  0.78640  Biso   1.000  N 
  C46      1.0000 0.34210  0.25550  0.78810  Biso   1.000  C 
  H46      1.0000 0.38370  0.22940  0.76060  Biso   1.000  H 
  C47      1.0000 0.38830  0.36280  0.82870  Biso   1.000  C 
  H47      1.0000 0.45840  0.40830  0.82780  Biso   1.000  H 
  Ag4      1.0000 0.17799  0.02437  0.72227  Biso   1.000  Ag
  N7       1.0000 0.10450  0.89830  0.64850  Biso   1.000  N 
  C48      1.0000 0.16010  0.86680  0.60830  Biso   1.000  C 
  C49      1.0000 0.10750  0.80320  0.55680  Biso   1.000  C 
  H48      1.0000 0.15110  0.78140  0.52970  Biso   1.000  H 
  C50      1.0000 0.99660  0.77330  0.54570  Biso   1.000  C 
  C51      1.0000 0.93240  0.71660  0.48800  Biso   1.000  C 
  H49      1.0000 0.97790  0.63980  0.47320  Biso   1.000  H 
  H50      1.0000 0.86100  0.66910  0.49220  Biso   1.000  H 
  C52      1.0000 0.90810  0.85370  0.44610  Biso   1.000  C 
  H51      1.0000 0.97950  0.89710  0.43980  Biso   1.000  H 
  H52      1.0000 0.86650  0.93340  0.46180  Biso   1.000  H 
  C53      1.0000 0.83760  0.79630  0.39020  Biso   1.000  C 
  H53      1.0000 0.87540  0.70800  0.37740  Biso   1.000  H 
  H54      1.0000 0.76340  0.76280  0.39630  Biso   1.000  H 
  C54      1.0000 0.82130  0.91740  0.34490  Biso   1.000  C 
  C55      1.0000 0.90800  0.95070  0.31580  Biso   1.000  C 
  H55      1.0000 0.97890  0.90420  0.32660  Biso   1.000  H 
  C56      1.0000 0.89010  0.05210  0.27100  Biso   1.000  C 
  H56      1.0000 0.94710  0.06510  0.25000  Biso   1.000  H 
  N8       1.0000 0.79000  0.13470  0.25650  Biso   1.000  N 
  C57      1.0000 0.70900  0.10440  0.28650  Biso   1.000  C 
  H57      1.0000 0.64030  0.15730  0.27730  Biso   1.000  H 
  C58      1.0000 0.72100  0.00080  0.32950  Biso   1.000  C 
  H58      1.0000 0.66160  0.98590  0.34880  Biso   1.000  H 
  C59      1.0000 0.93920  0.79800  0.58800  Biso   1.000  C 
  H59      1.0000 0.86220  0.77380  0.58330  Biso   1.000  H 
  C60      1.0000 0.99620  0.86080  0.63860  Biso   1.000  C 
  H60      1.0000 0.95500  0.87690  0.66710  Biso   1.000  H 
  H61      1.0000 0.23790  0.88750  0.61430  Biso   1.000  H 
  H62      1.0000 0.32080  0.58210  0.92410  Biso   1.000  H 
  H63      1.0000 0.47440  0.74650  0.97720  Biso   1.000  H 
  H64      1.0000 0.59250  0.75430  0.95810  Biso   1.000  H 
  H65      1.0000 0.72350  0.50730  0.98530  Biso   1.000  H 
  H66      1.0000 0.12460  0.20800  0.62260  Biso   1.000  H 
  H67      1.0000 0.23660  0.26280  0.60370  Biso   1.000  H 
  C61      1.0000 0.27900  0.50080  0.67050  Biso   1.000  C 
  H68      1.0000 0.33840  0.48590  0.65120  Biso   1.000  H 
  C62      1.0000 0.29100  0.60440  0.71350  Biso   1.000  C 
  H69      1.0000 0.35970  0.65730  0.72270  Biso   1.000  H 
  H70      1.0000 0.02110  0.40420  0.67340  Biso   1.000  H 
  O5       1.0000 0.04370  0.72420  0.84890  Biso   1.000  O 
  C63      1.0000 0.98530  0.82900  0.82320  Biso   1.000  C 
  O6       1.0000 0.02730  0.92920  0.79330  Biso   1.000  O 
  C64      1.0000 0.85880  0.84270  0.82500  Biso   1.000  C 
  C65      1.0000 0.83140  0.91110  0.87900  Biso   1.000  C 
  C66      1.0000 0.69680  0.92170  0.87000  Biso   1.000  C 
  H71      1.0000 0.66630  0.81800  0.86860  Biso   1.000  H 
  H72      1.0000 0.67680  0.97210  0.90260  Biso   1.000  H 
  C67      1.0000 0.64000  0.00570  0.81830  Biso   1.000  C 
  O7       1.0000 0.59390  0.92760  0.77570  Biso   1.000  O 
  O8       1.0000 0.63920  0.15120  0.81850  Biso   1.000  O 
  C68      1.0000 0.87280  0.80240  0.92920  Biso   1.000  C 
  H73      1.0000 0.83100  0.70620  0.92300  Biso   1.000  H 
  C69      1.0000 0.85620  0.87350  0.98620  Biso   1.000  C 
  H74      1.0000 0.77520  0.88440  0.98590  Biso   1.000  H 
  C70      1.0000 0.91190  0.02610  0.99700  Biso   1.000  C 
  C71      1.0000 0.87180  0.13620  0.94760  Biso   1.000  C 
  H75      1.0000 0.79160  0.15870  0.94570  Biso   1.000  H 
  H76      1.0000 0.91340  0.23220  0.95490  Biso   1.000  H 
  C72      1.0000 0.88760  0.07450  0.89110  Biso   1.000  C 
  H77      1.0000 0.96840  0.06760  0.89060  Biso   1.000  H 
  H78      1.0000 0.85350  0.14530  0.86160  Biso   1.000  H 
  H79      1.0000 0.99400  0.01380  0.00260  Biso   1.000  H 
  H80      1.0000 0.89370  0.06960  0.03120  Biso   1.000  H 
  H81      1.0000 0.88750  0.80400  0.01660  Biso   1.000  H 
  H82      1.0000 0.95300  0.77970  0.93110  Biso   1.000  H 
  H83      1.0000 0.82500  0.74100  0.81970  Biso   1.000  H 
  H84      1.0000 0.82280  0.90590  0.79350  Biso   1.000  H 
