data_image0
_cell_length_a       11.8882
_cell_length_b       14.8409
_cell_length_c       6.5383
_cell_angle_alpha    90
_cell_angle_beta     90
_cell_angle_gamma    90

_symmetry_space_group_name_H-M    "P 1"
_symmetry_int_tables_number       1

loop_
  _symmetry_equiv_pos_as_xyz
  'x, y, z'

loop_
  _atom_site_label
  _atom_site_occupancy
  _atom_site_fract_x
  _atom_site_fract_y
  _atom_site_fract_z
  _atom_site_thermal_displace_type
  _atom_site_B_iso_or_equiv
  _atom_site_type_symbol
  Pd1      1.0000 0.00000  0.99525  0.98770  Biso   1.000  Pd
  Pd2      1.0000 0.00000  0.00475  0.48770  Biso   1.000  Pd
  S1       1.0000 0.12502  0.04225  0.73701  Biso   1.000  S 
  C1       1.0000 0.19767  0.94312  0.70346  Biso   1.000  C 
  C2       1.0000 0.16347  0.86559  0.80534  Biso   1.000  C 
  C3       1.0000 0.22514  0.78650  0.78546  Biso   1.000  C 
  H1       1.0000 0.19958  0.73365  0.84617  Biso   1.000  H 
  C4       1.0000 0.32288  0.78568  0.66880  Biso   1.000  C 
  H2       1.0000 0.36860  0.73483  0.66771  Biso   1.000  H 
  C5       1.0000 0.35477  0.86221  0.56088  Biso   1.000  C 
  C6       1.0000 0.29285  0.94122  0.57982  Biso   1.000  C 
  H3       1.0000 0.31613  0.99320  0.51260  Biso   1.000  H 
  H4       1.0000 0.41607  0.86000  0.47263  Biso   1.000  H 
  H5       1.0000 0.09865  0.86639  0.88497  Biso   1.000  H 
  S2       1.0000 0.87498  0.95775  0.23701  Biso   1.000  S 
  C7       1.0000 0.80233  0.05688  0.20346  Biso   1.000  C 
  C8       1.0000 0.70715  0.05878  0.07982  Biso   1.000  C 
  H6       1.0000 0.68387  0.00680  0.01260  Biso   1.000  H 
  C9       1.0000 0.64523  0.13780  0.06088  Biso   1.000  C 
  C10      1.0000 0.67712  0.21432  0.16880  Biso   1.000  C 
  H7       1.0000 0.63140  0.26517  0.16771  Biso   1.000  H 
  C11      1.0000 0.77486  0.21350  0.28546  Biso   1.000  C 
  H8       1.0000 0.80041  0.26635  0.34617  Biso   1.000  H 
  C12      1.0000 0.83653  0.13441  0.30534  Biso   1.000  C 
  H9       1.0000 0.90135  0.13361  0.38497  Biso   1.000  H 
  H10      1.0000 0.58393  0.14000  0.97263  Biso   1.000  H 
  S3       1.0000 0.12502  0.95775  0.23701  Biso   1.000  S 
  C13      1.0000 0.19767  0.05688  0.20346  Biso   1.000  C 
  C14      1.0000 0.29285  0.05878  0.07982  Biso   1.000  C 
  H11      1.0000 0.31613  0.00680  0.01260  Biso   1.000  H 
  C15      1.0000 0.35477  0.13780  0.06088  Biso   1.000  C 
  C16      1.0000 0.32288  0.21432  0.16880  Biso   1.000  C 
  H12      1.0000 0.36860  0.26517  0.16771  Biso   1.000  H 
  C17      1.0000 0.22514  0.21350  0.28546  Biso   1.000  C 
  H13      1.0000 0.19958  0.26635  0.34617  Biso   1.000  H 
  C18      1.0000 0.16347  0.13441  0.30534  Biso   1.000  C 
  H14      1.0000 0.09865  0.13361  0.38497  Biso   1.000  H 
  H15      1.0000 0.41607  0.14000  0.97263  Biso   1.000  H 
  S4       1.0000 0.87498  0.04225  0.73701  Biso   1.000  S 
  C19      1.0000 0.80233  0.94312  0.70346  Biso   1.000  C 
  C20      1.0000 0.70715  0.94122  0.57982  Biso   1.000  C 
  H16      1.0000 0.68387  0.99320  0.51260  Biso   1.000  H 
  C21      1.0000 0.64523  0.86221  0.56088  Biso   1.000  C 
  H17      1.0000 0.58393  0.86000  0.47263  Biso   1.000  H 
  C22      1.0000 0.67712  0.78568  0.66880  Biso   1.000  C 
  H18      1.0000 0.63140  0.73483  0.66771  Biso   1.000  H 
  C23      1.0000 0.77486  0.78650  0.78546  Biso   1.000  C 
  H19      1.0000 0.80041  0.73365  0.84617  Biso   1.000  H 
  C24      1.0000 0.83653  0.86559  0.80534  Biso   1.000  C 
  H20      1.0000 0.90135  0.86639  0.88497  Biso   1.000  H 
