data_image0
_cell_length_a       14.8474
_cell_length_b       14.8474
_cell_length_c       11.8056
_cell_angle_alpha    90
_cell_angle_beta     90
_cell_angle_gamma    90

_symmetry_space_group_name_H-M    "P 1"
_symmetry_int_tables_number       1

loop_
  _symmetry_equiv_pos_as_xyz
  'x, y, z'

loop_
  _atom_site_label
  _atom_site_occupancy
  _atom_site_fract_x
  _atom_site_fract_y
  _atom_site_fract_z
  _atom_site_thermal_displace_type
  _atom_site_B_iso_or_equiv
  _atom_site_type_symbol
  O1       1.0000 0.62320  0.37831  0.60281  Biso   1.000  O 
  C1       1.0000 0.59466  0.35735  0.70142  Biso   1.000  C 
  C2       1.0000 0.53958  0.43084  0.75958  Biso   1.000  C 
  C3       1.0000 0.54005  0.42960  0.87811  Biso   1.000  C 
  H1       1.0000 0.57318  0.38162  0.90735  Biso   1.000  H 
  C4       1.0000 0.50000  0.50000  0.93693  Biso   1.000  C 
  C5       1.0000 0.50000  0.50000  0.06307  Biso   1.000  C 
  C6       1.0000 0.57040  0.45995  0.12189  Biso   1.000  C 
  H2       1.0000 0.61838  0.42682  0.09265  Biso   1.000  H 
  C7       1.0000 0.56916  0.46042  0.24042  Biso   1.000  C 
  C8       1.0000 0.50000  0.50000  0.30559  Biso   1.000  C 
  H3       1.0000 0.50000  0.50000  0.38750  Biso   1.000  H 
  C9       1.0000 0.43084  0.53958  0.24042  Biso   1.000  C 
  C10      1.0000 0.42960  0.54005  0.12189  Biso   1.000  C 
  H4       1.0000 0.38162  0.57318  0.09265  Biso   1.000  H 
  C11      1.0000 0.35735  0.59466  0.29858  Biso   1.000  C 
  O2       1.0000 0.37831  0.62320  0.39719  Biso   1.000  O 
  Al1      1.0000 0.30668  0.69332  0.50000  Biso   1.000  Al
  O3       1.0000 0.25000  0.75093  0.37500  Biso   1.000  O 
  Al2      1.0000 0.19332  0.69332  0.25000  Biso   1.000  Al
  O4       1.0000 0.25093  0.75000  0.12500  Biso   1.000  O 
  Al3      1.0000 0.19332  0.80668  0.00000  Biso   1.000  Al
  O5       1.0000 0.12169  0.87680  0.89719  Biso   1.000  O 
  C12      1.0000 0.14265  0.90534  0.79858  Biso   1.000  C 
  C13      1.0000 0.06916  0.96042  0.74042  Biso   1.000  C 
  C14      1.0000 0.07040  0.95995  0.62189  Biso   1.000  C 
  H5       1.0000 0.11838  0.92682  0.59265  Biso   1.000  H 
  C15      1.0000 0.00000  0.00000  0.56307  Biso   1.000  C 
  C16      1.0000 0.92960  0.04005  0.62189  Biso   1.000  C 
  H6       1.0000 0.88162  0.07318  0.59265  Biso   1.000  H 
  C17      1.0000 0.93084  0.03958  0.74042  Biso   1.000  C 
  C18      1.0000 0.00000  0.00000  0.80559  Biso   1.000  C 
  H7       1.0000 0.00000  0.00000  0.88750  Biso   1.000  H 
  C19      1.0000 0.85735  0.09466  0.79858  Biso   1.000  C 
  O6       1.0000 0.87831  0.12320  0.89719  Biso   1.000  O 
  Al4      1.0000 0.80668  0.19332  0.00000  Biso   1.000  Al
  O7       1.0000 0.74907  0.25000  0.12500  Biso   1.000  O 
  Al5      1.0000 0.80668  0.30668  0.25000  Biso   1.000  Al
  O8       1.0000 0.75000  0.24907  0.37500  Biso   1.000  O 
  Al6      1.0000 0.69332  0.30668  0.50000  Biso   1.000  Al
  O9       1.0000 0.75093  0.25000  0.62500  Biso   1.000  O 
  Al7      1.0000 0.69332  0.19332  0.75000  Biso   1.000  Al
  O10      1.0000 0.75000  0.25093  0.87500  Biso   1.000  O 
  O11      1.0000 0.62169  0.12320  0.85281  Biso   1.000  O 
  C20      1.0000 0.64265  0.09466  0.95142  Biso   1.000  C 
  C21      1.0000 0.56916  0.03958  0.00958  Biso   1.000  C 
  C22      1.0000 0.57040  0.04005  0.12811  Biso   1.000  C 
  C23      1.0000 0.50000  0.00000  0.18693  Biso   1.000  C 
  C24      1.0000 0.50000  0.00000  0.31307  Biso   1.000  C 
  C25      1.0000 0.54005  0.07040  0.37189  Biso   1.000  C 
  H8       1.0000 0.57318  0.11838  0.34265  Biso   1.000  H 
  C26      1.0000 0.53958  0.06916  0.49042  Biso   1.000  C 
  C27      1.0000 0.50000  0.00000  0.55559  Biso   1.000  C 
  H9       1.0000 0.50000  0.00000  0.63750  Biso   1.000  H 
  C28      1.0000 0.46042  0.93084  0.49042  Biso   1.000  C 
  C29      1.0000 0.45995  0.92960  0.37189  Biso   1.000  C 
  H10      1.0000 0.42682  0.88162  0.34265  Biso   1.000  H 
  C30      1.0000 0.40534  0.85735  0.54858  Biso   1.000  C 
  O12      1.0000 0.37680  0.87831  0.64719  Biso   1.000  O 
  Al8      1.0000 0.30668  0.80668  0.75000  Biso   1.000  Al
  O13      1.0000 0.24907  0.75000  0.62500  Biso   1.000  O 
  O14      1.0000 0.25000  0.74907  0.87500  Biso   1.000  O 
  O15      1.0000 0.37831  0.87680  0.85281  Biso   1.000  O 
  C31      1.0000 0.35735  0.90534  0.95142  Biso   1.000  C 
  O16      1.0000 0.28635  0.89634  0.00360  Biso   1.000  O 
  C32      1.0000 0.43084  0.96042  0.00958  Biso   1.000  C 
  C33      1.0000 0.42960  0.95995  0.12811  Biso   1.000  C 
  H11      1.0000 0.38162  0.92682  0.15735  Biso   1.000  H 
  C34      1.0000 0.50000  0.00000  0.94441  Biso   1.000  C 
  H12      1.0000 0.50000  0.00000  0.86250  Biso   1.000  H 
  O17      1.0000 0.39634  0.71365  0.75360  Biso   1.000  O 
  C35      1.0000 0.40534  0.64265  0.70142  Biso   1.000  C 
  C36      1.0000 0.46042  0.56916  0.75958  Biso   1.000  C 
  C37      1.0000 0.45995  0.57040  0.87811  Biso   1.000  C 
  H13      1.0000 0.42682  0.61838  0.90735  Biso   1.000  H 
  C38      1.0000 0.50000  0.50000  0.69441  Biso   1.000  C 
  H14      1.0000 0.50000  0.50000  0.61250  Biso   1.000  H 
  O18      1.0000 0.37680  0.62169  0.60281  Biso   1.000  O 
  O19      1.0000 0.21365  0.89634  0.74640  Biso   1.000  O 
  O20      1.0000 0.39634  0.78635  0.49640  Biso   1.000  O 
  C39      1.0000 0.59466  0.14265  0.54858  Biso   1.000  C 
  O21      1.0000 0.62320  0.12169  0.64719  Biso   1.000  O 
  O22      1.0000 0.60366  0.21365  0.49640  Biso   1.000  O 
  H15      1.0000 0.61838  0.07318  0.15735  Biso   1.000  H 
  O23      1.0000 0.71365  0.10366  0.00360  Biso   1.000  O 
  O24      1.0000 0.60366  0.28635  0.75360  Biso   1.000  O 
  O25      1.0000 0.78635  0.10366  0.74640  Biso   1.000  O 
  O26      1.0000 0.62169  0.37680  0.39719  Biso   1.000  O 
  C40      1.0000 0.64265  0.40534  0.29858  Biso   1.000  C 
  O27      1.0000 0.71365  0.39634  0.24640  Biso   1.000  O 
  O28      1.0000 0.78635  0.39634  0.50360  Biso   1.000  O 
  C41      1.0000 0.85735  0.40534  0.45142  Biso   1.000  C 
  C42      1.0000 0.93084  0.46042  0.50958  Biso   1.000  C 
  C43      1.0000 0.92960  0.45995  0.62811  Biso   1.000  C 
  H16      1.0000 0.88162  0.42682  0.65735  Biso   1.000  H 
  C44      1.0000 0.00000  0.50000  0.68693  Biso   1.000  C 
  C45      1.0000 0.07040  0.54005  0.62811  Biso   1.000  C 
  H17      1.0000 0.11838  0.57318  0.65735  Biso   1.000  H 
  C46      1.0000 0.06916  0.53958  0.50958  Biso   1.000  C 
  C47      1.0000 0.00000  0.50000  0.44441  Biso   1.000  C 
  H18      1.0000 0.00000  0.50000  0.36250  Biso   1.000  H 
  C48      1.0000 0.14265  0.59466  0.45142  Biso   1.000  C 
  O29      1.0000 0.12169  0.62320  0.35281  Biso   1.000  O 
  O30      1.0000 0.21365  0.60366  0.50360  Biso   1.000  O 
  C49      1.0000 0.00000  0.50000  0.81307  Biso   1.000  C 
  C50      1.0000 0.95995  0.42960  0.87189  Biso   1.000  C 
  H19      1.0000 0.92682  0.38162  0.84265  Biso   1.000  H 
  C51      1.0000 0.96042  0.43084  0.99042  Biso   1.000  C 
  C52      1.0000 0.90534  0.35735  0.04858  Biso   1.000  C 
  O31      1.0000 0.87680  0.37831  0.14719  Biso   1.000  O 
  O32      1.0000 0.89634  0.28635  0.99640  Biso   1.000  O 
  C53      1.0000 0.00000  0.50000  0.05559  Biso   1.000  C 
  H20      1.0000 0.00000  0.50000  0.13750  Biso   1.000  H 
  C54      1.0000 0.03958  0.56916  0.99042  Biso   1.000  C 
  C55      1.0000 0.04005  0.57040  0.87189  Biso   1.000  C 
  H21      1.0000 0.07318  0.61838  0.84265  Biso   1.000  H 
  C56      1.0000 0.09466  0.64265  0.04858  Biso   1.000  C 
  O33      1.0000 0.12320  0.62169  0.14719  Biso   1.000  O 
  O34      1.0000 0.10366  0.71365  0.99640  Biso   1.000  O 
  O35      1.0000 0.87831  0.37680  0.35281  Biso   1.000  O 
  O36      1.0000 0.89634  0.21365  0.25360  Biso   1.000  O 
  C57      1.0000 0.90534  0.14265  0.20142  Biso   1.000  C 
  C58      1.0000 0.96042  0.06916  0.25958  Biso   1.000  C 
  C59      1.0000 0.95995  0.07040  0.37811  Biso   1.000  C 
  H22      1.0000 0.92682  0.11838  0.40735  Biso   1.000  H 
  C60      1.0000 0.00000  0.00000  0.43693  Biso   1.000  C 
  C61      1.0000 0.04005  0.92960  0.37811  Biso   1.000  C 
  H23      1.0000 0.07318  0.88162  0.40735  Biso   1.000  H 
  C62      1.0000 0.03958  0.93084  0.25958  Biso   1.000  C 
  C63      1.0000 0.00000  0.00000  0.19441  Biso   1.000  C 
  H24      1.0000 0.00000  0.00000  0.11250  Biso   1.000  H 
  C64      1.0000 0.09466  0.85735  0.20142  Biso   1.000  C 
  O37      1.0000 0.12320  0.87831  0.10281  Biso   1.000  O 
  O38      1.0000 0.10366  0.78635  0.25360  Biso   1.000  O 
  O39      1.0000 0.87680  0.12169  0.10281  Biso   1.000  O 
  O40      1.0000 0.28635  0.60366  0.24640  Biso   1.000  O 
