data_image0
_cell_length_a       10.308
_cell_length_b       16.716
_cell_length_c       18.919
_cell_angle_alpha    90
_cell_angle_beta     120.307
_cell_angle_gamma    90

_symmetry_space_group_name_H-M    "P 1"
_symmetry_int_tables_number       1

loop_
  _symmetry_equiv_pos_as_xyz
  'x, y, z'

loop_
  _atom_site_label
  _atom_site_occupancy
  _atom_site_fract_x
  _atom_site_fract_y
  _atom_site_fract_z
  _atom_site_thermal_displace_type
  _atom_site_B_iso_or_equiv
  _atom_site_type_symbol
  Dy1      1.0000 0.59572  0.67741  0.26679  Biso   1.000  Dy
  O1       1.0000 0.71320  0.70650  0.40020  Biso   1.000  O 
  C1       1.0000 0.83160  0.73810  0.46230  Biso   1.000  C 
  C2       1.0000 0.96630  0.75140  0.46170  Biso   1.000  C 
  H1       1.0000 0.97190  0.73680  0.41590  Biso   1.000  H 
  C3       1.0000 0.08760  0.78490  0.52660  Biso   1.000  C 
  C4       1.0000 0.08460  0.80750  0.59640  Biso   1.000  C 
  C5       1.0000 0.95600  0.79580  0.59940  Biso   1.000  C 
  H2       1.0000 0.95310  0.81120  0.64580  Biso   1.000  H 
  C6       1.0000 0.82870  0.76090  0.53370  Biso   1.000  C 
  C7       1.0000 0.69850  0.74670  0.54080  Biso   1.000  C 
  H3       1.0000 0.70000  0.76500  0.58760  Biso   1.000  H 
  N1       1.0000 0.57960  0.71030  0.48640  Biso   1.000  N 
  C8       1.0000 0.45370  0.68900  0.49870  Biso   1.000  C 
  H4       1.0000 0.36010  0.70790  0.45270  Biso   1.000  H 
  C9       1.0000 0.44750  0.59900  0.50620  Biso   1.000  C 
  H5       1.0000 0.42960  0.57440  0.45560  Biso   1.000  H 
  H6       1.0000 0.54410  0.58040  0.54980  Biso   1.000  H 
  C10      1.0000 0.32580  0.57200  0.52390  Biso   1.000  C 
  H7       1.0000 0.22900  0.59070  0.48040  Biso   1.000  H 
  H8       1.0000 0.32320  0.51400  0.52420  Biso   1.000  H 
  C11      1.0000 0.35080  0.60320  0.60560  Biso   1.000  C 
  H9       1.0000 0.45730  0.60220  0.64580  Biso   1.000  H 
  H10      1.0000 0.31660  0.65820  0.59920  Biso   1.000  H 
  N2       1.0000 0.26930  0.55450  0.63470  Biso   1.000  N 
  C12      1.0000 0.14960  0.57710  0.63530  Biso   1.000  C 
  C13      1.0000 0.06930  0.52880  0.66240  Biso   1.000  C 
  C14      1.0000 0.11520  0.45020  0.69150  Biso   1.000  C 
  C15      1.0000 0.02780  0.40700  0.71550  Biso   1.000  C 
  C16      1.0000 0.90540  0.44130  0.71360  Biso   1.000  C 
  H11      1.0000 0.84960  0.41130  0.73030  Biso   1.000  H 
  C17      1.0000 0.86220  0.51940  0.68750  Biso   1.000  C 
  C18      1.0000 0.94280  0.56220  0.66170  Biso   1.000  C 
  H12      1.0000 0.91410  0.61430  0.64320  Biso   1.000  H 
  H13      1.0000 0.77990  0.54200  0.68780  Biso   1.000  H 
  H14      1.0000 0.05300  0.35430  0.73290  Biso   1.000  H 
  O2       1.0000 0.23580  0.41910  0.69570  Biso   1.000  O 
  Dy2      1.0000 0.40428  0.32259  0.73321  Biso   1.000  Dy
  Cl1      1.0000 0.24572  0.21317  0.75941  Biso   1.000  Cl
  Cl2      1.0000 0.55644  0.42758  0.69864  Biso   1.000  Cl
  O3       1.0000 0.28680  0.29350  0.59980  Biso   1.000  O 
  C19      1.0000 0.16840  0.26190  0.53770  Biso   1.000  C 
  C20      1.0000 0.17130  0.23910  0.46630  Biso   1.000  C 
  C21      1.0000 0.30150  0.25330  0.45920  Biso   1.000  C 
  H15      1.0000 0.30000  0.23500  0.41240  Biso   1.000  H 
  N3       1.0000 0.42040  0.28970  0.51360  Biso   1.000  N 
  C22      1.0000 0.54630  0.31100  0.50130  Biso   1.000  C 
  H16      1.0000 0.53300  0.28550  0.45200  Biso   1.000  H 
  C23      1.0000 0.55250  0.40100  0.49380  Biso   1.000  C 
  H17      1.0000 0.45590  0.41960  0.45020  Biso   1.000  H 
  C24      1.0000 0.67420  0.42800  0.47610  Biso   1.000  C 
  C25      1.0000 0.64920  0.39680  0.39440  Biso   1.000  C 
  H18      1.0000 0.68340  0.34180  0.40080  Biso   1.000  H 
  H19      1.0000 0.54270  0.39780  0.35420  Biso   1.000  H 
  N4       1.0000 0.73070  0.44550  0.36530  Biso   1.000  N 
  C26      1.0000 0.85040  0.42290  0.36470  Biso   1.000  C 
  C27      1.0000 0.93070  0.47120  0.33760  Biso   1.000  C 
  C28      1.0000 0.05720  0.43780  0.33830  Biso   1.000  C 
  H20      1.0000 0.08590  0.38570  0.35680  Biso   1.000  H 
  C29      1.0000 0.13780  0.48060  0.31250  Biso   1.000  C 
  H21      1.0000 0.22010  0.45800  0.31220  Biso   1.000  H 
  C30      1.0000 0.09460  0.55870  0.28640  Biso   1.000  C 
  H22      1.0000 0.15040  0.58870  0.26970  Biso   1.000  H 
  C31      1.0000 0.97220  0.59300  0.28450  Biso   1.000  C 
  H23      1.0000 0.94700  0.64570  0.26710  Biso   1.000  H 
  C32      1.0000 0.88480  0.54980  0.30850  Biso   1.000  C 
  O4       1.0000 0.76420  0.58090  0.30430  Biso   1.000  O 
  H24      1.0000 0.88630  0.37160  0.38330  Biso   1.000  H 
  H25      1.0000 0.67680  0.48600  0.47580  Biso   1.000  H 
  H26      1.0000 0.77100  0.40930  0.51960  Biso   1.000  H 
  H27      1.0000 0.57040  0.42560  0.54440  Biso   1.000  H 
  H28      1.0000 0.63990  0.29210  0.54730  Biso   1.000  H 
  C33      1.0000 0.04400  0.20420  0.40060  Biso   1.000  C 
  H29      1.0000 0.04690  0.18880  0.35420  Biso   1.000  H 
  C34      1.0000 0.91540  0.19250  0.40360  Biso   1.000  C 
  H30      1.0000 0.83120  0.16960  0.35950  Biso   1.000  H 
  C35      1.0000 0.91240  0.21510  0.47340  Biso   1.000  C 
  H31      1.0000 0.82520  0.20710  0.47560  Biso   1.000  H 
  C36      1.0000 0.03370  0.24860  0.53830  Biso   1.000  C 
  H32      1.0000 0.02810  0.26320  0.58410  Biso   1.000  H 
  Cl3      1.0000 0.53905  0.36495  0.88997  Biso   1.000  Cl
  O5       1.0000 0.55710  0.22800  0.73830  Biso   1.000  O 
  C37      1.0000 0.61410  0.18770  0.70220  Biso   1.000  C 
  C38      1.0000 0.55010  0.11630  0.65880  Biso   1.000  C 
  C39      1.0000 0.40300  0.09520  0.64700  Biso   1.000  C 
  H33      1.0000 0.35990  0.13550  0.66230  Biso   1.000  H 
  N5       1.0000 0.33080  0.03940  0.62290  Biso   1.000  N 
  C40      1.0000 0.17380  0.02850  0.60430  Biso   1.000  C 
  H34      1.0000 0.13690  0.07720  0.61600  Biso   1.000  H 
  C41      1.0000 0.08210  0.00840  0.51400  Biso   1.000  C 
  H35      1.0000 0.08770  0.05270  0.48250  Biso   1.000  H 
  C42      1.0000 0.91790  0.99160  0.48600  Biso   1.000  C 
  H36      1.0000 0.91230  0.94730  0.51750  Biso   1.000  H 
  C43      1.0000 0.82620  0.97150  0.39570  Biso   1.000  C 
  H37      1.0000 0.86310  0.92280  0.38400  Biso   1.000  H 
  N6       1.0000 0.66920  0.96060  0.37710  Biso   1.000  N 
  C44      1.0000 0.59700  0.90480  0.35300  Biso   1.000  C 
  H38      1.0000 0.64010  0.86450  0.33770  Biso   1.000  H 
  C45      1.0000 0.44990  0.88370  0.34120  Biso   1.000  C 
  C46      1.0000 0.38590  0.81230  0.29780  Biso   1.000  C 
  C47      1.0000 0.25250  0.78590  0.29370  Biso   1.000  C 
  H39      1.0000 0.20990  0.73760  0.26810  Biso   1.000  H 
  C48      1.0000 0.18440  0.83020  0.32690  Biso   1.000  C 
  H40      1.0000 0.09540  0.81200  0.32260  Biso   1.000  H 
  C49      1.0000 0.24630  0.90140  0.36680  Biso   1.000  C 
  H41      1.0000 0.19840  0.93120  0.38840  Biso   1.000  H 
  C50      1.0000 0.37770  0.92800  0.37420  Biso   1.000  C 
  H42      1.0000 0.41960  0.97570  0.40140  Biso   1.000  H 
  O6       1.0000 0.44290  0.77200  0.26170  Biso   1.000  O 
  H43      1.0000 0.83200  0.01450  0.36300  Biso   1.000  H 
  H44      1.0000 0.87470  0.03820  0.49700  Biso   1.000  H 
  H45      1.0000 0.12530  0.96180  0.50300  Biso   1.000  H 
  H46      1.0000 0.16800  0.98550  0.63700  Biso   1.000  H 
  C51      1.0000 0.62230  0.07200  0.62580  Biso   1.000  C 
  H47      1.0000 0.58040  0.02430  0.59860  Biso   1.000  H 
  C52      1.0000 0.75370  0.09860  0.63320  Biso   1.000  C 
  H48      1.0000 0.80160  0.06880  0.61160  Biso   1.000  H 
  C53      1.0000 0.81560  0.16980  0.67310  Biso   1.000  C 
  H49      1.0000 0.90460  0.18800  0.67740  Biso   1.000  H 
  C54      1.0000 0.74750  0.21410  0.70630  Biso   1.000  C 
  H50      1.0000 0.79010  0.26240  0.73190  Biso   1.000  H 
  H51      1.0000 0.11370  0.62840  0.61670  Biso   1.000  H 
  H52      1.0000 0.46700  0.71450  0.54800  Biso   1.000  H 
  H53      1.0000 0.16880  0.83040  0.64050  Biso   1.000  H 
  H54      1.0000 0.17480  0.79290  0.52440  Biso   1.000  H 
  Cl4      1.0000 0.44356  0.57242  0.30136  Biso   1.000  Cl
  Cl5      1.0000 0.46095  0.63505  0.11003  Biso   1.000  Cl
  Cl6      1.0000 0.75428  0.78683  0.24059  Biso   1.000  Cl
