data_image0
_cell_length_a       10.293
_cell_length_b       16.694
_cell_length_c       18.89
_cell_angle_alpha    90
_cell_angle_beta     120.222
_cell_angle_gamma    90

_symmetry_space_group_name_H-M    "P 1"
_symmetry_int_tables_number       1

loop_
  _symmetry_equiv_pos_as_xyz
  'x, y, z'

loop_
  _atom_site_label
  _atom_site_occupancy
  _atom_site_fract_x
  _atom_site_fract_y
  _atom_site_fract_z
  _atom_site_thermal_displace_type
  _atom_site_B_iso_or_equiv
  _atom_site_type_symbol
  Er1      1.0000 0.40279  0.67795  0.23282  Biso   1.000  Er
  O1       1.0000 0.55460  0.77290  0.23870  Biso   1.000  O 
  C1       1.0000 0.61220  0.81270  0.20170  Biso   1.000  C 
  C2       1.0000 0.74580  0.78600  0.20600  Biso   1.000  C 
  C3       1.0000 0.81480  0.82970  0.17340  Biso   1.000  C 
  C4       1.0000 0.75420  0.90170  0.13310  Biso   1.000  C 
  C5       1.0000 0.62320  0.92820  0.12570  Biso   1.000  C 
  H1       1.0000 0.58190  0.97610  0.09840  Biso   1.000  H 
  C6       1.0000 0.54880  0.88480  0.15860  Biso   1.000  C 
  C7       1.0000 0.39220  0.90260  0.14890  Biso   1.000  C 
  H2       1.0000 0.34590  0.86480  0.16500  Biso   1.000  H 
  N1       1.0000 0.33360  0.96350  0.12140  Biso   1.000  N 
  C8       1.0000 0.17240  0.97190  0.10370  Biso   1.000  C 
  H3       1.0000 0.13760  0.92220  0.11510  Biso   1.000  H 
  C9       1.0000 0.08260  0.99190  0.01420  Biso   1.000  C 
  H4       1.0000 0.08920  0.94780  0.98280  Biso   1.000  H 
  C10      1.0000 0.91740  0.00810  0.98580  Biso   1.000  C 
  C11      1.0000 0.82760  0.02810  0.89630  Biso   1.000  C 
  H5       1.0000 0.86240  0.07780  0.88490  Biso   1.000  H 
  H6       1.0000 0.83530  0.98570  0.86350  Biso   1.000  H 
  N2       1.0000 0.66640  0.03650  0.87860  Biso   1.000  N 
  C12      1.0000 0.60780  0.09740  0.85110  Biso   1.000  C 
  C13      1.0000 0.45120  0.11520  0.84140  Biso   1.000  C 
  C14      1.0000 0.37680  0.07180  0.87430  Biso   1.000  C 
  H7       1.0000 0.41810  0.02390  0.90160  Biso   1.000  H 
  C15      1.0000 0.24580  0.09830  0.86690  Biso   1.000  C 
  H8       1.0000 0.19730  0.06870  0.88850  Biso   1.000  H 
  C16      1.0000 0.18520  0.17030  0.82660  Biso   1.000  C 
  H9       1.0000 0.09600  0.18900  0.82190  Biso   1.000  H 
  C17      1.0000 0.25420  0.21400  0.79400  Biso   1.000  C 
  H10      1.0000 0.21220  0.26240  0.76820  Biso   1.000  H 
  C18      1.0000 0.38780  0.18730  0.79830  Biso   1.000  C 
  O2       1.0000 0.44540  0.22710  0.76130  Biso   1.000  O 
  Er2      1.0000 0.59721  0.32205  0.76718  Biso   1.000  Er
  O3       1.0000 0.71370  0.29312  0.89898  Biso   1.000  O 
  C19      1.0000 0.83280  0.26230  0.96110  Biso   1.000  C 
  C20      1.0000 0.82910  0.23920  0.03290  Biso   1.000  C 
  C21      1.0000 0.95810  0.20490  0.09870  Biso   1.000  C 
  C22      1.0000 0.08700  0.19330  0.09630  Biso   1.000  C 
  C23      1.0000 0.08960  0.21570  0.02560  Biso   1.000  C 
  H11      1.0000 0.17650  0.20720  0.02310  Biso   1.000  H 
  C24      1.0000 0.96730  0.24990  0.96020  Biso   1.000  C 
  H12      1.0000 0.97300  0.26510  0.91450  Biso   1.000  H 
  H13      1.0000 0.17150  0.17100  0.14070  Biso   1.000  H 
  H14      1.0000 0.95550  0.18960  0.14540  Biso   1.000  H 
  C25      1.0000 0.70000  0.25370  0.04050  Biso   1.000  C 
  H15      1.0000 0.70280  0.23620  0.08790  Biso   1.000  H 
  N3       1.0000 0.57890  0.28960  0.98560  Biso   1.000  N 
  C26      1.0000 0.45460  0.31080  0.99880  Biso   1.000  C 
  H16      1.0000 0.36060  0.29140  0.95340  Biso   1.000  H 
  H17      1.0000 0.46940  0.28580  0.04860  Biso   1.000  H 
  C27      1.0000 0.44740  0.40120  0.00560  Biso   1.000  C 
  H18      1.0000 0.54410  0.42040  0.04870  Biso   1.000  H 
  H19      1.0000 0.42850  0.42550  0.95460  Biso   1.000  H 
  C28      1.0000 0.32600  0.42810  0.02380  Biso   1.000  C 
  H20      1.0000 0.32320  0.48620  0.02410  Biso   1.000  H 
  H21      1.0000 0.22910  0.40940  0.98050  Biso   1.000  H 
  C29      1.0000 0.35170  0.39700  0.10570  Biso   1.000  C 
  H22      1.0000 0.31800  0.34180  0.09970  Biso   1.000  H 
  H23      1.0000 0.45830  0.39830  0.14580  Biso   1.000  H 
  N4       1.0000 0.26940  0.44600  0.13470  Biso   1.000  N 
  C30      1.0000 0.14990  0.42300  0.13520  Biso   1.000  C 
  H24      1.0000 0.11420  0.37160  0.11640  Biso   1.000  H 
  C31      1.0000 0.06910  0.47090  0.16250  Biso   1.000  C 
  C32      1.0000 0.11530  0.55030  0.19180  Biso   1.000  C 
  C33      1.0000 0.02730  0.59360  0.21600  Biso   1.000  C 
  C34      1.0000 0.90460  0.55950  0.21430  Biso   1.000  C 
  C35      1.0000 0.86200  0.48100  0.18800  Biso   1.000  C 
  H25      1.0000 0.77950  0.45840  0.18810  Biso   1.000  H 
  C36      1.0000 0.94280  0.43740  0.16210  Biso   1.000  C 
  H26      1.0000 0.91420  0.38510  0.14400  Biso   1.000  H 
  H27      1.0000 0.84860  0.58940  0.23110  Biso   1.000  H 
  H28      1.0000 0.05260  0.64630  0.23340  Biso   1.000  H 
  O4       1.0000 0.23480  0.58155  0.19524  Biso   1.000  O 
  Cl1      1.0000 0.44500  0.42554  0.80114  Biso   1.000  Cl
  O5       1.0000 0.76520  0.41845  0.80476  Biso   1.000  O 
  C37      1.0000 0.88470  0.44970  0.80820  Biso   1.000  C 
  C38      1.0000 0.97270  0.40640  0.78400  Biso   1.000  C 
  H29      1.0000 0.94740  0.35370  0.76660  Biso   1.000  H 
  C39      1.0000 0.09540  0.44050  0.78570  Biso   1.000  C 
  H30      1.0000 0.15140  0.41060  0.76890  Biso   1.000  H 
  C40      1.0000 0.13800  0.51900  0.81200  Biso   1.000  C 
  H31      1.0000 0.22050  0.54160  0.81190  Biso   1.000  H 
  C41      1.0000 0.05720  0.56260  0.83790  Biso   1.000  C 
  C42      1.0000 0.93090  0.52910  0.83750  Biso   1.000  C 
  C43      1.0000 0.85010  0.57700  0.86480  Biso   1.000  C 
  N5       1.0000 0.73060  0.55400  0.86530  Biso   1.000  N 
  C44      1.0000 0.64830  0.60300  0.89430  Biso   1.000  C 
  H32      1.0000 0.54170  0.60170  0.85420  Biso   1.000  H 
  C45      1.0000 0.67400  0.57190  0.97620  Biso   1.000  C 
  C46      1.0000 0.55260  0.59880  0.99440  Biso   1.000  C 
  H33      1.0000 0.45590  0.57960  0.95130  Biso   1.000  H 
  C47      1.0000 0.54540  0.68920  0.00120  Biso   1.000  C 
  H34      1.0000 0.63940  0.70860  0.04660  Biso   1.000  H 
  H35      1.0000 0.53060  0.71420  0.95140  Biso   1.000  H 
  N6       1.0000 0.42110  0.71040  0.01440  Biso   1.000  N 
  C48      1.0000 0.30000  0.74630  0.95950  Biso   1.000  C 
  H36      1.0000 0.29720  0.76380  0.91210  Biso   1.000  H 
  C49      1.0000 0.17090  0.76080  0.96710  Biso   1.000  C 
  C50      1.0000 0.04190  0.79510  0.90130  Biso   1.000  C 
  C51      1.0000 0.91300  0.80670  0.90370  Biso   1.000  C 
  C52      1.0000 0.91040  0.78430  0.97440  Biso   1.000  C 
  H37      1.0000 0.82350  0.79280  0.97690  Biso   1.000  H 
  C53      1.0000 0.03270  0.75010  0.03980  Biso   1.000  C 
  H38      1.0000 0.02700  0.73490  0.08550  Biso   1.000  H 
  C54      1.0000 0.16720  0.73770  0.03890  Biso   1.000  C 
  O6       1.0000 0.28630  0.70688  0.10102  Biso   1.000  O 
  H39      1.0000 0.82850  0.82900  0.85930  Biso   1.000  H 
  H40      1.0000 0.04450  0.81040  0.85460  Biso   1.000  H 
  H41      1.0000 0.57150  0.57450  0.04540  Biso   1.000  H 
  H42      1.0000 0.67680  0.51380  0.97590  Biso   1.000  H 
  H43      1.0000 0.77090  0.59060  0.01950  Biso   1.000  H 
  H44      1.0000 0.68200  0.65820  0.90030  Biso   1.000  H 
  H45      1.0000 0.88580  0.62840  0.88360  Biso   1.000  H 
  H46      1.0000 0.08580  0.61490  0.85600  Biso   1.000  H 
  Cl2      1.0000 0.46299  0.36369  0.61206  Biso   1.000  Cl
  Cl3      1.0000 0.75389  0.21388  0.74058  Biso   1.000  Cl
  H47      1.0000 0.65410  0.13520  0.83500  Biso   1.000  H 
  H48      1.0000 0.87440  0.96110  0.99640  Biso   1.000  H 
  H49      1.0000 0.91080  0.05220  0.01720  Biso   1.000  H 
  H50      1.0000 0.12560  0.03890  0.00360  Biso   1.000  H 
  H51      1.0000 0.16470  0.01430  0.13650  Biso   1.000  H 
  H52      1.0000 0.80270  0.93130  0.11150  Biso   1.000  H 
  H53      1.0000 0.90400  0.81100  0.17810  Biso   1.000  H 
  H54      1.0000 0.78780  0.73760  0.23180  Biso   1.000  H 
  Cl4      1.0000 0.55500  0.57446  0.19886  Biso   1.000  Cl
  Cl5      1.0000 0.53701  0.63631  0.38794  Biso   1.000  Cl
  Cl6      1.0000 0.24611  0.78612  0.25942  Biso   1.000  Cl
