data_image0
_cell_length_a       7.333
_cell_length_b       18.187
_cell_length_c       13.579
_cell_angle_alpha    90
_cell_angle_beta     90
_cell_angle_gamma    90

_symmetry_space_group_name_H-M    "P 1"
_symmetry_int_tables_number       1

loop_
  _symmetry_equiv_pos_as_xyz
  'x, y, z'

loop_
  _atom_site_label
  _atom_site_occupancy
  _atom_site_fract_x
  _atom_site_fract_y
  _atom_site_fract_z
  _atom_site_thermal_displace_type
  _atom_site_B_iso_or_equiv
  _atom_site_type_symbol
  Cu1      1.0000 0.50000  0.50000  0.00000  Biso   1.000  Cu
  N1       1.0000 0.50000  0.43366  0.87901  Biso   1.000  N 
  C1       1.0000 0.50000  0.46130  0.78780  Biso   1.000  C 
  H1       1.0000 0.50000  0.51210  0.78000  Biso   1.000  H 
  C2       1.0000 0.50000  0.41770  0.70520  Biso   1.000  C 
  H2       1.0000 0.50000  0.43850  0.64260  Biso   1.000  H 
  C3       1.0000 0.50000  0.34250  0.71740  Biso   1.000  C 
  C4       1.0000 0.50000  0.29510  0.63160  Biso   1.000  C 
  N2       1.0000 0.50000  0.25950  0.56430  Biso   1.000  N 
  C5       1.0000 0.50000  0.31310  0.81190  Biso   1.000  C 
  H3       1.0000 0.50000  0.26250  0.82160  Biso   1.000  H 
  C6       1.0000 0.50000  0.36036  0.88990  Biso   1.000  C 
  H4       1.0000 0.50000  0.34090  0.95320  Biso   1.000  H 
  N3       1.0000 0.29040  0.56815  0.93210  Biso   1.000  N 
  C7       1.0000 0.15340  0.59035  0.90597  Biso   1.000  C 
  N4       1.0000 0.00000  0.61690  0.87090  Biso   1.000  N 
  C8       1.0000 0.84660  0.59035  0.90597  Biso   1.000  C 
  N5       1.0000 0.70960  0.56815  0.93210  Biso   1.000  N 
  N6       1.0000 0.50000  0.56634  0.12099  Biso   1.000  N 
  C9       1.0000 0.50000  0.53870  0.21220  Biso   1.000  C 
  H5       1.0000 0.50000  0.48790  0.22000  Biso   1.000  H 
  C10      1.0000 0.50000  0.58230  0.29480  Biso   1.000  C 
  H6       1.0000 0.50000  0.56150  0.35740  Biso   1.000  H 
  C11      1.0000 0.50000  0.65750  0.28260  Biso   1.000  C 
  C12      1.0000 0.50000  0.70490  0.36840  Biso   1.000  C 
  N7       1.0000 0.50000  0.74050  0.43570  Biso   1.000  N 
  C13      1.0000 0.50000  0.68690  0.18810  Biso   1.000  C 
  H7       1.0000 0.50000  0.73750  0.17840  Biso   1.000  H 
  C14      1.0000 0.50000  0.63964  0.11010  Biso   1.000  C 
  H8       1.0000 0.50000  0.65910  0.04680  Biso   1.000  H 
  N8       1.0000 0.29040  0.43185  0.06790  Biso   1.000  N 
  C15      1.0000 0.15340  0.40965  0.09403  Biso   1.000  C 
  N9       1.0000 0.00000  0.38310  0.12910  Biso   1.000  N 
  C16      1.0000 0.84660  0.40965  0.09403  Biso   1.000  C 
  N10      1.0000 0.70960  0.43185  0.06790  Biso   1.000  N 
