data_image0
_cell_length_a       9.162
_cell_length_b       18.442
_cell_length_c       9.573
_cell_angle_alpha    90
_cell_angle_beta     108.79
_cell_angle_gamma    90

_symmetry_space_group_name_H-M    "P 1"
_symmetry_int_tables_number       1

loop_
  _symmetry_equiv_pos_as_xyz
  'x, y, z'

loop_
  _atom_site_label
  _atom_site_occupancy
  _atom_site_fract_x
  _atom_site_fract_y
  _atom_site_fract_z
  _atom_site_thermal_displace_type
  _atom_site_B_iso_or_equiv
  _atom_site_type_symbol
  Rh1      1.0000 0.25268  0.25000  0.95039  Biso   1.000  Rh
  C1       1.0000 0.07380  0.17410  0.85860  Biso   1.000  C 
  H1       1.0000 0.10810  0.13070  0.82260  Biso   1.000  H 
  C2       1.0000 0.93770  0.21080  0.74900  Biso   1.000  C 
  H2       1.0000 0.92970  0.19450  0.65080  Biso   1.000  H 
  H3       1.0000 0.84380  0.19450  0.76650  Biso   1.000  H 
  C3       1.0000 0.93770  0.28920  0.74900  Biso   1.000  C 
  H4       1.0000 0.92970  0.30550  0.65080  Biso   1.000  H 
  H5       1.0000 0.84380  0.30550  0.76650  Biso   1.000  H 
  C4       1.0000 0.07380  0.32590  0.85860  Biso   1.000  C 
  H6       1.0000 0.10810  0.36930  0.82260  Biso   1.000  H 
  C5       1.0000 0.10670  0.32540  0.00820  Biso   1.000  C 
  C6       1.0000 0.01150  0.28780  0.08990  Biso   1.000  C 
  C7       1.0000 0.01150  0.21220  0.08990  Biso   1.000  C 
  H7       1.0000 0.04980  0.19580  0.19390  Biso   1.000  H 
  H8       1.0000 0.90850  0.19580  0.05100  Biso   1.000  H 
  C8       1.0000 0.10670  0.17460  0.00820  Biso   1.000  C 
  H9       1.0000 0.16180  0.13130  0.05850  Biso   1.000  H 
  H10      1.0000 0.04980  0.30420  0.19390  Biso   1.000  H 
  H11      1.0000 0.90850  0.30420  0.05100  Biso   1.000  H 
  H12      1.0000 0.16180  0.36870  0.05850  Biso   1.000  H 
  N1       1.0000 0.42360  0.17140  0.96470  Biso   1.000  N 
  C9       1.0000 0.46210  0.15640  0.84370  Biso   1.000  C 
  H13      1.0000 0.40060  0.17700  0.74940  Biso   1.000  H 
  C10      1.0000 0.58500  0.11280  0.84810  Biso   1.000  C 
  H14      1.0000 0.60930  0.10340  0.75820  Biso   1.000  H 
  C11      1.0000 0.67320  0.08270  0.97990  Biso   1.000  C 
  C12      1.0000 0.81070  0.04260  0.98900  Biso   1.000  C 
  C13      1.0000 0.93100  0.01560  0.99650  Biso   1.000  C 
  C14      1.0000 0.06900  0.98440  0.00350  Biso   1.000  C 
  C15      1.0000 0.18930  0.95740  0.01100  Biso   1.000  C 
  C16      1.0000 0.32680  0.91730  0.02010  Biso   1.000  C 
  C17      1.0000 0.41500  0.88720  0.15190  Biso   1.000  C 
  H15      1.0000 0.39070  0.89660  0.24180  Biso   1.000  H 
  C18      1.0000 0.53790  0.84360  0.15630  Biso   1.000  C 
  H16      1.0000 0.59940  0.82300  0.25060  Biso   1.000  H 
  N2       1.0000 0.57640  0.82860  0.03530  Biso   1.000  N 
  C19      1.0000 0.49250  0.85840  0.90890  Biso   1.000  C 
  H17      1.0000 0.51780  0.84730  0.82040  Biso   1.000  H 
  C20      1.0000 0.36800  0.90320  0.89670  Biso   1.000  C 
  H18      1.0000 0.31070  0.92510  0.80250  Biso   1.000  H 
  Rh2      1.0000 0.74732  0.75000  0.04961  Biso   1.000  Rh
  C21      1.0000 0.92620  0.67410  0.14140  Biso   1.000  C 
  H19      1.0000 0.89190  0.63070  0.17740  Biso   1.000  H 
  C22      1.0000 0.89330  0.67460  0.99180  Biso   1.000  C 
  H20      1.0000 0.83820  0.63130  0.94150  Biso   1.000  H 
  C23      1.0000 0.98850  0.71220  0.91010  Biso   1.000  C 
  H21      1.0000 0.95020  0.69580  0.80610  Biso   1.000  H 
  C24      1.0000 0.98850  0.78780  0.91010  Biso   1.000  C 
  H22      1.0000 0.95020  0.80420  0.80610  Biso   1.000  H 
  C25      1.0000 0.89330  0.82540  0.99180  Biso   1.000  C 
  H23      1.0000 0.83820  0.86870  0.94150  Biso   1.000  H 
  C26      1.0000 0.92620  0.82590  0.14140  Biso   1.000  C 
  H24      1.0000 0.89190  0.86930  0.17740  Biso   1.000  H 
  C27      1.0000 0.06230  0.78920  0.25100  Biso   1.000  C 
  C28      1.0000 0.06230  0.71080  0.25100  Biso   1.000  C 
  H25      1.0000 0.15620  0.69450  0.23350  Biso   1.000  H 
  H26      1.0000 0.07030  0.69450  0.34920  Biso   1.000  H 
  H27      1.0000 0.15620  0.80550  0.23350  Biso   1.000  H 
  H28      1.0000 0.07030  0.80550  0.34920  Biso   1.000  H 
  H29      1.0000 0.09150  0.80420  0.94900  Biso   1.000  H 
  H30      1.0000 0.09150  0.69580  0.94900  Biso   1.000  H 
  N3       1.0000 0.57640  0.67140  0.03530  Biso   1.000  N 
  C29      1.0000 0.53790  0.65640  0.15630  Biso   1.000  C 
  H31      1.0000 0.59940  0.67700  0.25060  Biso   1.000  H 
  C30      1.0000 0.41500  0.61280  0.15190  Biso   1.000  C 
  H32      1.0000 0.39070  0.60340  0.24180  Biso   1.000  H 
  C31      1.0000 0.32680  0.58270  0.02010  Biso   1.000  C 
  C32      1.0000 0.18930  0.54260  0.01100  Biso   1.000  C 
  C33      1.0000 0.06900  0.51560  0.00350  Biso   1.000  C 
  C34      1.0000 0.93100  0.48440  0.99650  Biso   1.000  C 
  C35      1.0000 0.81070  0.45740  0.98900  Biso   1.000  C 
  C36      1.0000 0.67320  0.41730  0.97990  Biso   1.000  C 
  C37      1.0000 0.58500  0.38720  0.84810  Biso   1.000  C 
  C38      1.0000 0.46210  0.34360  0.84370  Biso   1.000  C 
  H33      1.0000 0.40060  0.32300  0.74940  Biso   1.000  H 
  N4       1.0000 0.42360  0.32860  0.96470  Biso   1.000  N 
  C39      1.0000 0.50750  0.35840  0.09110  Biso   1.000  C 
  H34      1.0000 0.48220  0.34730  0.17960  Biso   1.000  H 
  C40      1.0000 0.63200  0.40320  0.10330  Biso   1.000  C 
  H35      1.0000 0.68930  0.42510  0.19750  Biso   1.000  H 
  H36      1.0000 0.60930  0.39660  0.75820  Biso   1.000  H 
  C41      1.0000 0.36800  0.59680  0.89670  Biso   1.000  C 
  H37      1.0000 0.31070  0.57490  0.80250  Biso   1.000  H 
  C42      1.0000 0.49250  0.64160  0.90890  Biso   1.000  C 
  H38      1.0000 0.51780  0.65270  0.82040  Biso   1.000  H 
  C43      1.0000 0.63200  0.09680  0.10330  Biso   1.000  C 
  H39      1.0000 0.68930  0.07490  0.19750  Biso   1.000  H 
  C44      1.0000 0.50750  0.14160  0.09110  Biso   1.000  C 
  H40      1.0000 0.48220  0.15270  0.17960  Biso   1.000  H 
