data_image0
_cell_length_a       17.0602
_cell_length_b       18.8603
_cell_length_c       16.9468
_cell_angle_alpha    90
_cell_angle_beta     113.193
_cell_angle_gamma    90

_symmetry_space_group_name_H-M    "P 1"
_symmetry_int_tables_number       1

loop_
  _symmetry_equiv_pos_as_xyz
  'x, y, z'

loop_
  _atom_site_label
  _atom_site_occupancy
  _atom_site_fract_x
  _atom_site_fract_y
  _atom_site_fract_z
  _atom_site_thermal_displace_type
  _atom_site_B_iso_or_equiv
  _atom_site_type_symbol
  Zn1      1.0000 0.25031  0.37429  0.41858  Biso   1.000  Zn
  N1       1.0000 0.34203  0.36586  0.53933  Biso   1.000  N 
  C1       1.0000 0.38791  0.30732  0.57162  Biso   1.000  C 
  H1       1.0000 0.37710  0.26620  0.53660  Biso   1.000  H 
  C2       1.0000 0.45032  0.30436  0.65370  Biso   1.000  C 
  H2       1.0000 0.48180  0.26200  0.67440  Biso   1.000  H 
  C3       1.0000 0.46668  0.36429  0.70591  Biso   1.000  C 
  C4       1.0000 0.53332  0.36429  0.79409  Biso   1.000  C 
  C5       1.0000 0.54968  0.30436  0.84630  Biso   1.000  C 
  H3       1.0000 0.51820  0.26200  0.82560  Biso   1.000  H 
  C6       1.0000 0.61209  0.30732  0.92838  Biso   1.000  C 
  H4       1.0000 0.62290  0.26620  0.96340  Biso   1.000  H 
  N2       1.0000 0.65797  0.36586  0.96067  Biso   1.000  N 
  C7       1.0000 0.64289  0.42347  0.91009  Biso   1.000  C 
  C8       1.0000 0.58130  0.42488  0.82790  Biso   1.000  C 
  H5       1.0000 0.57160  0.46690  0.79450  Biso   1.000  H 
  H6       1.0000 0.67610  0.46490  0.93200  Biso   1.000  H 
  Zn2      1.0000 0.74969  0.37429  0.08142  Biso   1.000  Zn
  O1       1.0000 0.74827  0.28411  0.13086  Biso   1.000  O 
  C9       1.0000 0.79951  0.26408  0.20562  Biso   1.000  C 
  C10      1.0000 0.78051  0.19285  0.23319  Biso   1.000  C 
  C11      1.0000 0.71290  0.15232  0.17801  Biso   1.000  C 
  H7       1.0000 0.67870  0.16970  0.12240  Biso   1.000  H 
  C12      1.0000 0.69550  0.08691  0.20405  Biso   1.000  C 
  C13      1.0000 0.74571  0.06063  0.28516  Biso   1.000  C 
  C14      1.0000 0.81416  0.10002  0.33946  Biso   1.000  C 
  C15      1.0000 0.83048  0.16632  0.31458  Biso   1.000  C 
  H8       1.0000 0.87600  0.19400  0.35310  Biso   1.000  H 
  H9       1.0000 0.85000  0.08150  0.39390  Biso   1.000  H 
  C16      1.0000 0.72466  0.98929  0.31216  Biso   1.000  C 
  O2       1.0000 0.65528  0.96148  0.26907  Biso   1.000  O 
  Li1      1.0000 0.58020  0.88360  0.24780  Biso   1.000  Li
  O3       1.0000 0.46566  0.88547  0.15987  Biso   1.000  O 
  C17      1.0000 0.42170  0.91057  0.08718  Biso   1.000  C 
  C18      1.0000 0.46273  0.95603  0.04208  Biso   1.000  C 
  C19      1.0000 0.54749  0.94645  0.05404  Biso   1.000  C 
  H10      1.0000 0.58030  0.91000  0.09100  Biso   1.000  H 
  C20      1.0000 0.58414  0.98977  0.01241  Biso   1.000  C 
  H11      1.0000 0.64200  0.98270  0.02090  Biso   1.000  H 
  C21      1.0000 0.53727  0.04397  0.95792  Biso   1.000  C 
  C22      1.0000 0.45251  0.05355  0.94596  Biso   1.000  C 
  H12      1.0000 0.41970  0.09000  0.90900  Biso   1.000  H 
  C23      1.0000 0.41586  0.01023  0.98759  Biso   1.000  C 
  H13      1.0000 0.35800  0.01730  0.97910  Biso   1.000  H 
  C24      1.0000 0.57830  0.08943  0.91282  Biso   1.000  C 
  O4       1.0000 0.65730  0.09875  0.95297  Biso   1.000  O 
  Zn3      1.0000 0.75031  0.12571  0.91858  Biso   1.000  Zn
  O5       1.0000 0.75173  0.21589  0.86914  Biso   1.000  O 
  C25      1.0000 0.70049  0.23592  0.79438  Biso   1.000  C 
  C26      1.0000 0.71949  0.30715  0.76681  Biso   1.000  C 
  C27      1.0000 0.66952  0.33368  0.68542  Biso   1.000  C 
  H14      1.0000 0.62400  0.30600  0.64690  Biso   1.000  H 
  C28      1.0000 0.68584  0.39998  0.66054  Biso   1.000  C 
  H15      1.0000 0.65000  0.41850  0.60610  Biso   1.000  H 
  C29      1.0000 0.75429  0.43937  0.71484  Biso   1.000  C 
  C30      1.0000 0.77534  0.51071  0.68784  Biso   1.000  C 
  O6       1.0000 0.71854  0.53771  0.62071  Biso   1.000  O 
  Zn4      1.0000 0.74969  0.62571  0.58142  Biso   1.000  Zn
  O7       1.0000 0.74827  0.71589  0.63086  Biso   1.000  O 
  C31      1.0000 0.79951  0.73592  0.70562  Biso   1.000  C 
  C32      1.0000 0.78051  0.80715  0.73319  Biso   1.000  C 
  C33      1.0000 0.83048  0.83368  0.81458  Biso   1.000  C 
  H16      1.0000 0.87600  0.80600  0.85310  Biso   1.000  H 
  C34      1.0000 0.81416  0.89998  0.83946  Biso   1.000  C 
  H17      1.0000 0.85000  0.91850  0.89390  Biso   1.000  H 
  C35      1.0000 0.74571  0.93937  0.78516  Biso   1.000  C 
  C36      1.0000 0.72466  0.01071  0.81216  Biso   1.000  C 
  O8       1.0000 0.65528  0.03852  0.76907  Biso   1.000  O 
  Li2      1.0000 0.58020  0.11640  0.74780  Biso   1.000  Li
  O9       1.0000 0.46566  0.11453  0.65987  Biso   1.000  O 
  C37      1.0000 0.42170  0.08943  0.58718  Biso   1.000  C 
  C38      1.0000 0.46273  0.04397  0.54208  Biso   1.000  C 
  C39      1.0000 0.54749  0.05355  0.55404  Biso   1.000  C 
  H18      1.0000 0.58030  0.09000  0.59100  Biso   1.000  H 
  C40      1.0000 0.58414  0.01023  0.51241  Biso   1.000  C 
  H19      1.0000 0.64200  0.01730  0.52090  Biso   1.000  H 
  C41      1.0000 0.53727  0.95603  0.45792  Biso   1.000  C 
  C42      1.0000 0.45251  0.94645  0.44596  Biso   1.000  C 
  H20      1.0000 0.41970  0.91000  0.40900  Biso   1.000  H 
  C43      1.0000 0.41586  0.98977  0.48759  Biso   1.000  C 
  H21      1.0000 0.35800  0.98270  0.47910  Biso   1.000  H 
  C44      1.0000 0.57830  0.91057  0.41282  Biso   1.000  C 
  O10      1.0000 0.65730  0.90125  0.45297  Biso   1.000  O 
  Zn5      1.0000 0.75031  0.87429  0.41858  Biso   1.000  Zn
  O11      1.0000 0.78146  0.96229  0.37929  Biso   1.000  O 
  O12      1.0000 0.75173  0.78411  0.36914  Biso   1.000  O 
  C45      1.0000 0.70049  0.76408  0.29438  Biso   1.000  C 
  C46      1.0000 0.71949  0.69285  0.26681  Biso   1.000  C 
  C47      1.0000 0.66952  0.66632  0.18542  Biso   1.000  C 
  H22      1.0000 0.62400  0.69400  0.14690  Biso   1.000  H 
  C48      1.0000 0.68584  0.60002  0.16054  Biso   1.000  C 
  H23      1.0000 0.65000  0.58150  0.10610  Biso   1.000  H 
  C49      1.0000 0.75429  0.56063  0.21484  Biso   1.000  C 
  C50      1.0000 0.77534  0.48929  0.18784  Biso   1.000  C 
  O13      1.0000 0.71854  0.46229  0.12071  Biso   1.000  O 
  O14      1.0000 0.84472  0.46148  0.23093  Biso   1.000  O 
  Li3      1.0000 0.91980  0.38360  0.25220  Biso   1.000  Li
  O15      1.0000 0.86104  0.29879  0.25549  Biso   1.000  O 
  O16      1.0000 0.96566  0.38547  0.15987  Biso   1.000  O 
  C51      1.0000 0.92170  0.41057  0.08718  Biso   1.000  C 
  C52      1.0000 0.96273  0.45603  0.04208  Biso   1.000  C 
  C53      1.0000 0.04749  0.44645  0.05404  Biso   1.000  C 
  H24      1.0000 0.08030  0.41000  0.09100  Biso   1.000  H 
  C54      1.0000 0.08414  0.48977  0.01241  Biso   1.000  C 
  H25      1.0000 0.14200  0.48270  0.02090  Biso   1.000  H 
  C55      1.0000 0.03727  0.54397  0.95792  Biso   1.000  C 
  C56      1.0000 0.07830  0.58943  0.91282  Biso   1.000  C 
  O17      1.0000 0.15730  0.59875  0.95297  Biso   1.000  O 
  Zn6      1.0000 0.25031  0.62571  0.91858  Biso   1.000  Zn
  O18      1.0000 0.28146  0.53771  0.87929  Biso   1.000  O 
  C57      1.0000 0.22466  0.51071  0.81216  Biso   1.000  C 
  O19      1.0000 0.15528  0.53852  0.76907  Biso   1.000  O 
  Li4      1.0000 0.08020  0.61640  0.74780  Biso   1.000  Li
  O20      1.0000 0.03434  0.61453  0.84013  Biso   1.000  O 
  Li5      1.0000 0.91980  0.61640  0.75220  Biso   1.000  Li
  O21      1.0000 0.84472  0.53852  0.73093  Biso   1.000  O 
  O22      1.0000 0.86104  0.70121  0.75549  Biso   1.000  O 
  O23      1.0000 0.96566  0.61453  0.65987  Biso   1.000  O 
  C58      1.0000 0.92170  0.58943  0.58718  Biso   1.000  C 
  C59      1.0000 0.96273  0.54397  0.54208  Biso   1.000  C 
  C60      1.0000 0.91586  0.48977  0.48759  Biso   1.000  C 
  C61      1.0000 0.95251  0.44645  0.44596  Biso   1.000  C 
  H26      1.0000 0.91970  0.41000  0.40900  Biso   1.000  H 
  C62      1.0000 0.03727  0.45603  0.45792  Biso   1.000  C 
  C63      1.0000 0.08414  0.51023  0.51241  Biso   1.000  C 
  C64      1.0000 0.04749  0.55355  0.55404  Biso   1.000  C 
  H27      1.0000 0.08030  0.59000  0.59100  Biso   1.000  H 
  H28      1.0000 0.14200  0.51730  0.52090  Biso   1.000  H 
  C65      1.0000 0.07830  0.41057  0.41282  Biso   1.000  C 
  O24      1.0000 0.15730  0.40125  0.45297  Biso   1.000  O 
  O25      1.0000 0.03434  0.38547  0.34013  Biso   1.000  O 
  Li6      1.0000 0.08020  0.38360  0.24780  Biso   1.000  Li
  O26      1.0000 0.13896  0.29879  0.24451  Biso   1.000  O 
  C66      1.0000 0.20049  0.26408  0.29438  Biso   1.000  C 
  C67      1.0000 0.21949  0.19285  0.26681  Biso   1.000  C 
  C68      1.0000 0.28710  0.15232  0.32199  Biso   1.000  C 
  C69      1.0000 0.30450  0.08691  0.29595  Biso   1.000  C 
  H29      1.0000 0.35100  0.05970  0.33360  Biso   1.000  H 
  C70      1.0000 0.25429  0.06063  0.21484  Biso   1.000  C 
  C71      1.0000 0.18584  0.10002  0.16054  Biso   1.000  C 
  H30      1.0000 0.15000  0.08150  0.10610  Biso   1.000  H 
  C72      1.0000 0.16952  0.16632  0.18542  Biso   1.000  C 
  H31      1.0000 0.12400  0.19400  0.14690  Biso   1.000  H 
  C73      1.0000 0.27534  0.98929  0.18784  Biso   1.000  C 
  O27      1.0000 0.21854  0.96229  0.12071  Biso   1.000  O 
  Zn7      1.0000 0.24969  0.87429  0.08142  Biso   1.000  Zn
  O28      1.0000 0.24827  0.78411  0.13086  Biso   1.000  O 
  C74      1.0000 0.29951  0.76408  0.20562  Biso   1.000  C 
  C75      1.0000 0.28051  0.69285  0.23319  Biso   1.000  C 
  C76      1.0000 0.21290  0.65232  0.17801  Biso   1.000  C 
  C77      1.0000 0.19550  0.58691  0.20405  Biso   1.000  C 
  H32      1.0000 0.14900  0.55970  0.16640  Biso   1.000  H 
  C78      1.0000 0.24571  0.56063  0.28516  Biso   1.000  C 
  C79      1.0000 0.22466  0.48929  0.31216  Biso   1.000  C 
  O29      1.0000 0.15528  0.46148  0.26907  Biso   1.000  O 
  O30      1.0000 0.28146  0.46229  0.37929  Biso   1.000  O 
  C80      1.0000 0.31416  0.60002  0.33946  Biso   1.000  C 
  H33      1.0000 0.35000  0.58150  0.39390  Biso   1.000  H 
  C81      1.0000 0.33048  0.66632  0.31458  Biso   1.000  C 
  H34      1.0000 0.37600  0.69400  0.35310  Biso   1.000  H 
  H35      1.0000 0.17870  0.66970  0.12240  Biso   1.000  H 
  O31      1.0000 0.36104  0.79879  0.25549  Biso   1.000  O 
  Li7      1.0000 0.41980  0.88360  0.25220  Biso   1.000  Li
  O32      1.0000 0.34472  0.96148  0.23093  Biso   1.000  O 
  O33      1.0000 0.53434  0.88547  0.34013  Biso   1.000  O 
  O34      1.0000 0.34270  0.90125  0.04703  Biso   1.000  O 
  N3       1.0000 0.15797  0.86586  0.96067  Biso   1.000  N 
  C82      1.0000 0.11209  0.80732  0.92838  Biso   1.000  C 
  H36      1.0000 0.12290  0.76620  0.96340  Biso   1.000  H 
  C83      1.0000 0.04968  0.80436  0.84630  Biso   1.000  C 
  H37      1.0000 0.01820  0.76200  0.82560  Biso   1.000  H 
  C84      1.0000 0.03332  0.86429  0.79409  Biso   1.000  C 
  C85      1.0000 0.08130  0.92488  0.82790  Biso   1.000  C 
  H38      1.0000 0.07160  0.96690  0.79450  Biso   1.000  H 
  C86      1.0000 0.14289  0.92347  0.91009  Biso   1.000  C 
  H39      1.0000 0.17610  0.96490  0.93200  Biso   1.000  H 
  C87      1.0000 0.96668  0.86429  0.70591  Biso   1.000  C 
  C88      1.0000 0.95032  0.80436  0.65370  Biso   1.000  C 
  C89      1.0000 0.88791  0.80732  0.57162  Biso   1.000  C 
  H40      1.0000 0.87710  0.76620  0.53660  Biso   1.000  H 
  N4       1.0000 0.84203  0.86586  0.53933  Biso   1.000  N 
  C90      1.0000 0.85711  0.92347  0.58991  Biso   1.000  C 
  H41      1.0000 0.82390  0.96490  0.56800  Biso   1.000  H 
  C91      1.0000 0.91870  0.92488  0.67210  Biso   1.000  C 
  H42      1.0000 0.92840  0.96690  0.70550  Biso   1.000  H 
  H43      1.0000 0.98180  0.76200  0.67440  Biso   1.000  H 
  H44      1.0000 0.32130  0.16970  0.37760  Biso   1.000  H 
  O35      1.0000 0.25173  0.28411  0.36914  Biso   1.000  O 
  H45      1.0000 0.85800  0.48270  0.47910  Biso   1.000  H 
  O36      1.0000 0.84270  0.59875  0.54703  Biso   1.000  O 
  O37      1.0000 0.13896  0.70121  0.74451  Biso   1.000  O 
  C92      1.0000 0.20049  0.73592  0.79438  Biso   1.000  C 
  C93      1.0000 0.21949  0.80715  0.76681  Biso   1.000  C 
  C94      1.0000 0.16952  0.83368  0.68542  Biso   1.000  C 
  H46      1.0000 0.12400  0.80600  0.64690  Biso   1.000  H 
  C95      1.0000 0.18584  0.89998  0.66054  Biso   1.000  C 
  H47      1.0000 0.15000  0.91850  0.60610  Biso   1.000  H 
  C96      1.0000 0.25429  0.93937  0.71484  Biso   1.000  C 
  C97      1.0000 0.27534  0.01071  0.68784  Biso   1.000  C 
  O38      1.0000 0.21854  0.03771  0.62071  Biso   1.000  O 
  Zn8      1.0000 0.24969  0.12571  0.58142  Biso   1.000  Zn
  O39      1.0000 0.34270  0.09875  0.54703  Biso   1.000  O 
  N5       1.0000 0.15797  0.13414  0.46067  Biso   1.000  N 
  C98      1.0000 0.11209  0.19268  0.42838  Biso   1.000  C 
  H48      1.0000 0.12290  0.23380  0.46340  Biso   1.000  H 
  C99      1.0000 0.04968  0.19564  0.34630  Biso   1.000  C 
  H49      1.0000 0.01820  0.23800  0.32560  Biso   1.000  H 
  C100     1.0000 0.03332  0.13571  0.29409  Biso   1.000  C 
  C101     1.0000 0.08130  0.07512  0.32790  Biso   1.000  C 
  H50      1.0000 0.07160  0.03310  0.29450  Biso   1.000  H 
  C102     1.0000 0.14289  0.07653  0.41009  Biso   1.000  C 
  H51      1.0000 0.17610  0.03510  0.43200  Biso   1.000  H 
  C103     1.0000 0.96668  0.13571  0.20591  Biso   1.000  C 
  C104     1.0000 0.95032  0.19564  0.15370  Biso   1.000  C 
  C105     1.0000 0.88791  0.19268  0.07162  Biso   1.000  C 
  H52      1.0000 0.87710  0.23380  0.03660  Biso   1.000  H 
  N6       1.0000 0.84203  0.13414  0.03933  Biso   1.000  N 
  C106     1.0000 0.85711  0.07653  0.08991  Biso   1.000  C 
  H53      1.0000 0.82390  0.03510  0.06800  Biso   1.000  H 
  C107     1.0000 0.91870  0.07512  0.17210  Biso   1.000  C 
  H54      1.0000 0.92840  0.03310  0.20550  Biso   1.000  H 
  H55      1.0000 0.98180  0.23800  0.17440  Biso   1.000  H 
  O40      1.0000 0.24827  0.21589  0.63086  Biso   1.000  O 
  C108     1.0000 0.29951  0.23592  0.70562  Biso   1.000  C 
  C109     1.0000 0.28051  0.30715  0.73319  Biso   1.000  C 
  C110     1.0000 0.33048  0.33368  0.81458  Biso   1.000  C 
  H56      1.0000 0.37600  0.30600  0.85310  Biso   1.000  H 
  C111     1.0000 0.31416  0.39998  0.83946  Biso   1.000  C 
  H57      1.0000 0.35000  0.41850  0.89390  Biso   1.000  H 
  C112     1.0000 0.24571  0.43937  0.78516  Biso   1.000  C 
  C113     1.0000 0.19550  0.41309  0.70405  Biso   1.000  C 
  H58      1.0000 0.14900  0.44030  0.66640  Biso   1.000  H 
  C114     1.0000 0.21290  0.34768  0.67801  Biso   1.000  C 
  H59      1.0000 0.17870  0.33030  0.62240  Biso   1.000  H 
  O41      1.0000 0.36104  0.20121  0.75549  Biso   1.000  O 
  Li8      1.0000 0.41980  0.11640  0.75220  Biso   1.000  Li
  O42      1.0000 0.34472  0.03852  0.73093  Biso   1.000  O 
  O43      1.0000 0.53434  0.11453  0.84013  Biso   1.000  O 
  C115     1.0000 0.30450  0.91309  0.79595  Biso   1.000  C 
  H60      1.0000 0.35100  0.94030  0.83360  Biso   1.000  H 
  C116     1.0000 0.28710  0.84768  0.82199  Biso   1.000  C 
  H61      1.0000 0.32130  0.83030  0.87760  Biso   1.000  H 
  O44      1.0000 0.25173  0.71589  0.86914  Biso   1.000  O 
  N7       1.0000 0.34203  0.63414  0.03933  Biso   1.000  N 
  C117     1.0000 0.38791  0.69268  0.07162  Biso   1.000  C 
  H62      1.0000 0.37710  0.73380  0.03660  Biso   1.000  H 
  C118     1.0000 0.45032  0.69564  0.15370  Biso   1.000  C 
  H63      1.0000 0.48180  0.73800  0.17440  Biso   1.000  H 
  C119     1.0000 0.46668  0.63571  0.20591  Biso   1.000  C 
  C120     1.0000 0.41870  0.57512  0.17210  Biso   1.000  C 
  H64      1.0000 0.42840  0.53310  0.20550  Biso   1.000  H 
  C121     1.0000 0.35711  0.57653  0.08991  Biso   1.000  C 
  H65      1.0000 0.32390  0.53510  0.06800  Biso   1.000  H 
  C122     1.0000 0.53332  0.63571  0.29409  Biso   1.000  C 
  C123     1.0000 0.54968  0.69564  0.34630  Biso   1.000  C 
  H66      1.0000 0.51820  0.73800  0.32560  Biso   1.000  H 
  C124     1.0000 0.61209  0.69268  0.42838  Biso   1.000  C 
  H67      1.0000 0.62290  0.73380  0.46340  Biso   1.000  H 
  N8       1.0000 0.65797  0.63414  0.46067  Biso   1.000  N 
  C125     1.0000 0.64289  0.57653  0.41009  Biso   1.000  C 
  C126     1.0000 0.58130  0.57512  0.32790  Biso   1.000  C 
  H68      1.0000 0.57160  0.53310  0.29450  Biso   1.000  H 
  H69      1.0000 0.67610  0.53510  0.43200  Biso   1.000  H 
  C127     1.0000 0.95251  0.55355  0.94596  Biso   1.000  C 
  H70      1.0000 0.91970  0.59000  0.90900  Biso   1.000  H 
  C128     1.0000 0.91586  0.51023  0.98759  Biso   1.000  C 
  H71      1.0000 0.85800  0.51730  0.97910  Biso   1.000  H 
  O45      1.0000 0.84270  0.40125  0.04703  Biso   1.000  O 
  C129     1.0000 0.80450  0.58691  0.29595  Biso   1.000  C 
  H72      1.0000 0.85100  0.55970  0.33360  Biso   1.000  H 
  C130     1.0000 0.78710  0.65232  0.32199  Biso   1.000  C 
  H73      1.0000 0.82130  0.66970  0.37760  Biso   1.000  H 
  O46      1.0000 0.63896  0.79879  0.24451  Biso   1.000  O 
  O47      1.0000 0.63896  0.20121  0.74451  Biso   1.000  O 
  O48      1.0000 0.78146  0.03771  0.87929  Biso   1.000  O 
  C131     1.0000 0.69550  0.91309  0.70405  Biso   1.000  C 
  H74      1.0000 0.64900  0.94030  0.66640  Biso   1.000  H 
  C132     1.0000 0.71290  0.84768  0.67801  Biso   1.000  C 
  H75      1.0000 0.67870  0.83030  0.62240  Biso   1.000  H 
  C133     1.0000 0.80450  0.41309  0.79595  Biso   1.000  C 
  H76      1.0000 0.85100  0.44030  0.83360  Biso   1.000  H 
  C134     1.0000 0.78710  0.34768  0.82199  Biso   1.000  C 
  H77      1.0000 0.82130  0.33030  0.87760  Biso   1.000  H 
  H78      1.0000 0.64900  0.05970  0.16640  Biso   1.000  H 
  C135     1.0000 0.41870  0.42488  0.67210  Biso   1.000  C 
  H79      1.0000 0.42840  0.46690  0.70550  Biso   1.000  H 
  C136     1.0000 0.35711  0.42347  0.58991  Biso   1.000  C 
  H80      1.0000 0.32390  0.46490  0.56800  Biso   1.000  H 
