data_image0
_cell_length_a       6.883
_cell_length_b       10.094
_cell_length_c       17.831
_cell_angle_alpha    90
_cell_angle_beta     90
_cell_angle_gamma    90

_symmetry_space_group_name_H-M    "P 1"
_symmetry_int_tables_number       1

loop_
  _symmetry_equiv_pos_as_xyz
  'x, y, z'

loop_
  _atom_site_label
  _atom_site_occupancy
  _atom_site_fract_x
  _atom_site_fract_y
  _atom_site_fract_z
  _atom_site_thermal_displace_type
  _atom_site_B_iso_or_equiv
  _atom_site_type_symbol
  Au1      1.0000 0.00000  0.19090  0.26312  Biso   1.000  Au
  Au2      1.0000 0.00000  0.30910  0.76312  Biso   1.000  Au
  Au3      1.0000 0.00000  0.80910  0.73688  Biso   1.000  Au
  Au4      1.0000 0.00000  0.69090  0.23688  Biso   1.000  Au
  Au5      1.0000 0.50000  0.69090  0.26312  Biso   1.000  Au
  Au6      1.0000 0.50000  0.80910  0.76312  Biso   1.000  Au
  Au7      1.0000 0.50000  0.30910  0.73688  Biso   1.000  Au
  Au8      1.0000 0.50000  0.19090  0.23688  Biso   1.000  Au
  Cu1      1.0000 0.00000  0.50000  0.50000  Biso   1.000  Cu
  Cu2      1.0000 0.00000  0.00000  0.00000  Biso   1.000  Cu
  Cu3      1.0000 0.50000  0.00000  0.50000  Biso   1.000  Cu
  Cu4      1.0000 0.50000  0.50000  0.00000  Biso   1.000  Cu
  N1       1.0000 0.00000  0.29600  0.42800  Biso   1.000  N 
  N2       1.0000 0.00000  0.20400  0.92800  Biso   1.000  N 
  N3       1.0000 0.00000  0.70400  0.57200  Biso   1.000  N 
  N4       1.0000 0.00000  0.79600  0.07200  Biso   1.000  N 
  N5       1.0000 0.50000  0.79600  0.42800  Biso   1.000  N 
  N6       1.0000 0.50000  0.70400  0.92800  Biso   1.000  N 
  N7       1.0000 0.50000  0.20400  0.57200  Biso   1.000  N 
  N8       1.0000 0.50000  0.29600  0.07200  Biso   1.000  N 
  N9       1.0000 0.00000  0.09200  0.09690  Biso   1.000  N 
  N10      1.0000 0.00000  0.40800  0.59690  Biso   1.000  N 
  N11      1.0000 0.00000  0.90800  0.90310  Biso   1.000  N 
  N12      1.0000 0.00000  0.59200  0.40310  Biso   1.000  N 
  N13      1.0000 0.50000  0.59200  0.09690  Biso   1.000  N 
  N14      1.0000 0.50000  0.90800  0.59690  Biso   1.000  N 
  N15      1.0000 0.50000  0.40800  0.90310  Biso   1.000  N 
  N16      1.0000 0.50000  0.09200  0.40310  Biso   1.000  N 
  N17      1.0000 0.29900  0.50000  0.50000  Biso   1.000  N 
  N18      1.0000 0.70100  0.00000  0.00000  Biso   1.000  N 
  N19      1.0000 0.79900  0.00000  0.50000  Biso   1.000  N 
  N20      1.0000 0.20100  0.50000  0.00000  Biso   1.000  N 
  N21      1.0000 0.70100  0.50000  0.50000  Biso   1.000  N 
  N22      1.0000 0.29900  0.00000  0.00000  Biso   1.000  N 
  N23      1.0000 0.20100  0.00000  0.50000  Biso   1.000  N 
  N24      1.0000 0.79900  0.50000  0.00000  Biso   1.000  N 
  C1       1.0000 0.00000  0.25000  0.36900  Biso   1.000  C 
  C2       1.0000 0.00000  0.25000  0.86900  Biso   1.000  C 
  C3       1.0000 0.00000  0.75000  0.63100  Biso   1.000  C 
  C4       1.0000 0.00000  0.75000  0.13100  Biso   1.000  C 
  C5       1.0000 0.50000  0.75000  0.36900  Biso   1.000  C 
  C6       1.0000 0.50000  0.75000  0.86900  Biso   1.000  C 
  C7       1.0000 0.50000  0.25000  0.63100  Biso   1.000  C 
  C8       1.0000 0.50000  0.25000  0.13100  Biso   1.000  C 
  C9       1.0000 0.00000  0.13000  0.15600  Biso   1.000  C 
  C10      1.0000 0.00000  0.37000  0.65600  Biso   1.000  C 
  C11      1.0000 0.00000  0.87000  0.84400  Biso   1.000  C 
  C12      1.0000 0.00000  0.63000  0.34400  Biso   1.000  C 
  C13      1.0000 0.50000  0.63000  0.15600  Biso   1.000  C 
  C14      1.0000 0.50000  0.87000  0.65600  Biso   1.000  C 
  C15      1.0000 0.50000  0.37000  0.84400  Biso   1.000  C 
  C16      1.0000 0.50000  0.13000  0.34400  Biso   1.000  C 
  C17      1.0000 0.39700  0.55100  0.55640  Biso   1.000  C 
  C18      1.0000 0.60300  0.94900  0.05640  Biso   1.000  C 
  C19      1.0000 0.39700  0.44900  0.44360  Biso   1.000  C 
  C20      1.0000 0.60300  0.05100  0.94360  Biso   1.000  C 
  C21      1.0000 0.89700  0.05100  0.55640  Biso   1.000  C 
  C22      1.0000 0.10300  0.44900  0.05640  Biso   1.000  C 
  C23      1.0000 0.89700  0.94900  0.44360  Biso   1.000  C 
  C24      1.0000 0.10300  0.55100  0.94360  Biso   1.000  C 
  C25      1.0000 0.60300  0.44900  0.44360  Biso   1.000  C 
  C26      1.0000 0.39700  0.05100  0.94360  Biso   1.000  C 
  C27      1.0000 0.60300  0.55100  0.55640  Biso   1.000  C 
  C28      1.0000 0.39700  0.94900  0.05640  Biso   1.000  C 
  C29      1.0000 0.10300  0.94900  0.44360  Biso   1.000  C 
  C30      1.0000 0.89700  0.55100  0.94360  Biso   1.000  C 
  C31      1.0000 0.10300  0.05100  0.55640  Biso   1.000  C 
  C32      1.0000 0.89700  0.44900  0.05640  Biso   1.000  C 
  H1       1.0000 0.31890  0.40625  0.39632  Biso   1.000  H 
  H2       1.0000 0.68110  0.09375  0.89632  Biso   1.000  H 
  H3       1.0000 0.31890  0.59375  0.60368  Biso   1.000  H 
  H4       1.0000 0.68110  0.90625  0.10368  Biso   1.000  H 
  H5       1.0000 0.81890  0.90625  0.39632  Biso   1.000  H 
  H6       1.0000 0.18110  0.59375  0.89632  Biso   1.000  H 
  H7       1.0000 0.81890  0.09375  0.60368  Biso   1.000  H 
  H8       1.0000 0.18110  0.40625  0.10368  Biso   1.000  H 
  H9       1.0000 0.68110  0.59375  0.60368  Biso   1.000  H 
  H10      1.0000 0.31890  0.90625  0.10368  Biso   1.000  H 
  H11      1.0000 0.68110  0.40625  0.39632  Biso   1.000  H 
  H12      1.0000 0.31890  0.09375  0.89632  Biso   1.000  H 
  H13      1.0000 0.18110  0.09375  0.60368  Biso   1.000  H 
  H14      1.0000 0.81890  0.40625  0.10368  Biso   1.000  H 
  H15      1.0000 0.18110  0.90625  0.39632  Biso   1.000  H 
  H16      1.0000 0.81890  0.59375  0.89632  Biso   1.000  H 
