data_image0
_cell_length_a       11.28
_cell_length_b       14.758
_cell_length_c       9.597
_cell_angle_alpha    98.21
_cell_angle_beta     90.64
_cell_angle_gamma    74.84

_symmetry_space_group_name_H-M    "P 1"
_symmetry_int_tables_number       1

loop_
  _symmetry_equiv_pos_as_xyz
  'x, y, z'

loop_
  _atom_site_label
  _atom_site_occupancy
  _atom_site_fract_x
  _atom_site_fract_y
  _atom_site_fract_z
  _atom_site_thermal_displace_type
  _atom_site_B_iso_or_equiv
  _atom_site_type_symbol
  W1       1.0000 0.68406  0.18994  0.70856  Biso   1.000  W 
  Cu1      1.0000 0.54123  0.16763  0.96612  Biso   1.000  Cu
  S1       1.0000 0.60300  0.05950  0.75590  Biso   1.000  S 
  C1       1.0000 0.75030  0.99960  0.79980  Biso   1.000  C 
  C2       1.0000 0.77610  0.92450  0.87570  Biso   1.000  C 
  C3       1.0000 0.89720  0.88710  0.92050  Biso   1.000  C 
  N1       1.0000 0.99330  0.85680  0.95740  Biso   1.000  N 
  Cu2      1.0000 0.15841  0.83043  0.03394  Biso   1.000  Cu
  S2       1.0000 0.14520  0.94060  0.24330  Biso   1.000  S 
  C4       1.0000 0.24970  0.00040  0.20020  Biso   1.000  C 
  C5       1.0000 0.22390  0.07550  0.12430  Biso   1.000  C 
  C6       1.0000 0.10280  0.11290  0.07950  Biso   1.000  C 
  N2       1.0000 0.00670  0.14320  0.04260  Biso   1.000  N 
  Cu3      1.0000 0.84159  0.16957  0.96606  Biso   1.000  Cu
  S3       1.0000 0.85480  0.05940  0.75670  Biso   1.000  S 
  S4       1.0000 0.77090  0.30350  0.85670  Biso   1.000  S 
  C7       1.0000 0.62800  0.34960  0.94530  Biso   1.000  C 
  C8       1.0000 0.60770  0.40440  0.07470  Biso   1.000  C 
  C9       1.0000 0.49100  0.42710  0.14580  Biso   1.000  C 
  N3       1.0000 0.39920  0.44390  0.20220  Biso   1.000  N 
  C10      1.0000 0.70800  0.43610  0.14750  Biso   1.000  C 
  N4       1.0000 0.78100  0.46120  0.20500  Biso   1.000  N 
  S5       1.0000 0.51920  0.30110  0.85530  Biso   1.000  S 
  Br1      1.0000 0.69790  0.15466  0.13771  Biso   1.000  Br
  C11      1.0000 0.31800  0.11220  0.07950  Biso   1.000  C 
  N5       1.0000 0.39740  0.14130  0.04140  Biso   1.000  N 
  W2       1.0000 0.31594  0.81006  0.29144  Biso   1.000  W 
  C12      1.0000 0.28210  0.72310  0.47130  Biso   1.000  C 
  C13      1.0000 0.23000  0.63690  0.45820  Biso   1.000  C 
  H1       1.0000 0.29590  0.57990  0.43830  Biso   1.000  H 
  H2       1.0000 0.17160  0.64030  0.38290  Biso   1.000  H 
  H3       1.0000 0.18810  0.63710  0.54640  Biso   1.000  H 
  C14      1.0000 0.21300  0.81890  0.50030  Biso   1.000  C 
  C15      1.0000 0.07280  0.85080  0.52800  Biso   1.000  C 
  H4       1.0000 0.03140  0.82830  0.44700  Biso   1.000  H 
  H5       1.0000 0.05240  0.82530  0.60990  Biso   1.000  H 
  H6       1.0000 0.04610  0.91980  0.54640  Biso   1.000  H 
  C16      1.0000 0.29620  0.87600  0.51930  Biso   1.000  C 
  C17      1.0000 0.41730  0.81570  0.49880  Biso   1.000  C 
  C18      1.0000 0.40820  0.72050  0.47010  Biso   1.000  C 
  C19      1.0000 0.51400  0.63200  0.45690  Biso   1.000  C 
  H7       1.0000 0.50920  0.59190  0.36920  Biso   1.000  H 
  H8       1.0000 0.51050  0.59830  0.53540  Biso   1.000  H 
  H9       1.0000 0.59130  0.65010  0.45800  Biso   1.000  H 
  C20      1.0000 0.53530  0.84250  0.52500  Biso   1.000  C 
  H10      1.0000 0.51940  0.91120  0.54190  Biso   1.000  H 
  H11      1.0000 0.59030  0.81790  0.44290  Biso   1.000  H 
  H12      1.0000 0.57410  0.81630  0.60620  Biso   1.000  H 
  C21      1.0000 0.26080  0.98090  0.57250  Biso   1.000  C 
  H13      1.0000 0.22290  0.99180  0.66610  Biso   1.000  H 
  H14      1.0000 0.20320  0.01390  0.50950  Biso   1.000  H 
  H15      1.0000 0.33370  0.00420  0.57740  Biso   1.000  H 
  S6       1.0000 0.39700  0.94050  0.24410  Biso   1.000  S 
  Cu4      1.0000 0.45877  0.83237  0.03388  Biso   1.000  Cu
  S7       1.0000 0.48080  0.69890  0.14470  Biso   1.000  S 
  C22      1.0000 0.37200  0.65040  0.05470  Biso   1.000  C 
  S8       1.0000 0.22910  0.69650  0.14330  Biso   1.000  S 
  C23      1.0000 0.39230  0.59560  0.92530  Biso   1.000  C 
  C24      1.0000 0.50900  0.57290  0.85420  Biso   1.000  C 
  N6       1.0000 0.60080  0.55610  0.79780  Biso   1.000  N 
  C25      1.0000 0.29200  0.56390  0.85250  Biso   1.000  C 
  N7       1.0000 0.21900  0.53880  0.79500  Biso   1.000  N 
  Br2      1.0000 0.30210  0.84534  0.86229  Biso   1.000  Br
  N8       1.0000 0.60260  0.85870  0.95860  Biso   1.000  N 
  C26      1.0000 0.68200  0.88780  0.92050  Biso   1.000  C 
  C27      1.0000 0.78700  0.18110  0.49970  Biso   1.000  C 
  C28      1.0000 0.92720  0.14920  0.47200  Biso   1.000  C 
  H16      1.0000 0.95390  0.08020  0.45360  Biso   1.000  H 
  H17      1.0000 0.94760  0.17470  0.39010  Biso   1.000  H 
  H18      1.0000 0.96860  0.17170  0.55300  Biso   1.000  H 
  C29      1.0000 0.70380  0.12400  0.48070  Biso   1.000  C 
  C30      1.0000 0.73920  0.01910  0.42750  Biso   1.000  C 
  H19      1.0000 0.77710  0.00820  0.33390  Biso   1.000  H 
  H20      1.0000 0.66630  0.99580  0.42260  Biso   1.000  H 
  H21      1.0000 0.79680  0.98610  0.49050  Biso   1.000  H 
  C31      1.0000 0.58270  0.18430  0.50120  Biso   1.000  C 
  C32      1.0000 0.46470  0.15750  0.47500  Biso   1.000  C 
  H22      1.0000 0.42590  0.18370  0.39380  Biso   1.000  H 
  H23      1.0000 0.48060  0.08880  0.45810  Biso   1.000  H 
  H24      1.0000 0.40970  0.18210  0.55710  Biso   1.000  H 
  C33      1.0000 0.59180  0.27950  0.52990  Biso   1.000  C 
  C34      1.0000 0.48600  0.36800  0.54310  Biso   1.000  C 
  H25      1.0000 0.40870  0.34990  0.54200  Biso   1.000  H 
  H26      1.0000 0.48950  0.40170  0.46460  Biso   1.000  H 
  H27      1.0000 0.49080  0.40810  0.63080  Biso   1.000  H 
  C35      1.0000 0.71790  0.27690  0.52870  Biso   1.000  C 
  C36      1.0000 0.77000  0.36310  0.54180  Biso   1.000  C 
  H28      1.0000 0.81190  0.36290  0.45360  Biso   1.000  H 
  H29      1.0000 0.70410  0.42010  0.56170  Biso   1.000  H 
  H30      1.0000 0.82840  0.35970  0.61710  Biso   1.000  H 
