data_image0
_cell_length_a       13.825
_cell_length_b       13.825
_cell_length_c       22.984
_cell_angle_alpha    90
_cell_angle_beta     90
_cell_angle_gamma    120

_symmetry_space_group_name_H-M    "P 1"
_symmetry_int_tables_number       1

loop_
  _symmetry_equiv_pos_as_xyz
  'x, y, z'

loop_
  _atom_site_label
  _atom_site_occupancy
  _atom_site_fract_x
  _atom_site_fract_y
  _atom_site_fract_z
  _atom_site_thermal_displace_type
  _atom_site_B_iso_or_equiv
  _atom_site_type_symbol
  Tb1      1.0000 0.69491  0.66650  0.41030  Biso   1.000  Tb
  O1       1.0000 0.60090  0.72490  0.34017  Biso   1.000  O 
  C1       1.0000 0.68910  0.79440  0.31527  Biso   1.000  C 
  O2       1.0000 0.78350  0.81630  0.33237  Biso   1.000  O 
  C2       1.0000 0.67560  0.84860  0.26027  Biso   1.000  C 
  C3       1.0000 0.57660  0.79620  0.23007  Biso   1.000  C 
  C4       1.0000 0.55970  0.84060  0.17887  Biso   1.000  C 
  C5       1.0000 0.45080  0.78560  0.14617  Biso   1.000  C 
  C6       1.0000 0.35980  0.68470  0.16547  Biso   1.000  C 
  H1       1.0000 0.36598  0.65046  0.19898  Biso   1.000  H 
  C7       1.0000 0.26130  0.63670  0.13457  Biso   1.000  C 
  C8       1.0000 0.16190  0.52570  0.15417  Biso   1.000  C 
  O3       1.0000 0.16730  0.49060  0.20357  Biso   1.000  O 
  Tb2      1.0000 0.02841  0.33350  0.25637  Biso   1.000  Tb
  C9       1.0000 0.15830  0.26260  0.16747  Biso   1.000  C 
  C10      1.0000 0.24940  0.24410  0.14507  Biso   1.000  C 
  C11      1.0000 0.23600  0.18470  0.09337  Biso   1.000  C 
  C12      1.0000 0.32440  0.17300  0.07307  Biso   1.000  C 
  C13      1.0000 0.31090  0.10530  0.01807  Biso   1.000  C 
  Tb3      1.0000 0.30509  0.97159  0.92303  Biso   1.000  Tb
  O4       1.0000 0.32330  0.83270  0.87023  Biso   1.000  O 
  C14      1.0000 0.36380  0.83810  0.82083  Biso   1.000  C 
  O5       1.0000 0.39650  0.91840  0.78573  Biso   1.000  O 
  Tb4      1.0000 0.33350  0.02841  0.74363  Biso   1.000  Tb
  O6       1.0000 0.26640  0.14710  0.77923  Biso   1.000  O 
  C15      1.0000 0.26260  0.15830  0.83253  Biso   1.000  C 
  C16      1.0000 0.24410  0.24940  0.85493  Biso   1.000  C 
  C17      1.0000 0.18470  0.23600  0.90663  Biso   1.000  C 
  H2       1.0000 0.15348  0.16895  0.92700  Biso   1.000  H 
  C18      1.0000 0.17300  0.32440  0.92693  Biso   1.000  C 
  C19      1.0000 0.10530  0.31090  0.98193  Biso   1.000  C 
  O7       1.0000 0.12400  0.39910  0.00683  Biso   1.000  O 
  Tb5      1.0000 0.97159  0.30509  0.07697  Biso   1.000  Tb
  O8       1.0000 0.83270  0.32330  0.12977  Biso   1.000  O 
  C20      1.0000 0.83810  0.36380  0.17917  Biso   1.000  C 
  O9       1.0000 0.91840  0.39650  0.21427  Biso   1.000  O 
  C21      1.0000 0.73870  0.37540  0.19877  Biso   1.000  C 
  C22      1.0000 0.64020  0.32490  0.16787  Biso   1.000  C 
  H3       1.0000 0.63402  0.28447  0.13435  Biso   1.000  H 
  C23      1.0000 0.54920  0.33480  0.18717  Biso   1.000  C 
  C24      1.0000 0.56160  0.39600  0.23647  Biso   1.000  C 
  H4       1.0000 0.50130  0.40233  0.24954  Biso   1.000  H 
  C25      1.0000 0.66020  0.44840  0.26727  Biso   1.000  C 
  C26      1.0000 0.74890  0.43570  0.24847  Biso   1.000  C 
  H5       1.0000 0.81519  0.46796  0.26956  Biso   1.000  H 
  C27      1.0000 0.67170  0.51730  0.31947  Biso   1.000  C 
  O10      1.0000 0.76670  0.58150  0.34034  Biso   1.000  O 
  O11      1.0000 0.58760  0.51090  0.34197  Biso   1.000  O 
  C28      1.0000 0.44030  0.28090  0.15447  Biso   1.000  C 
  C29      1.0000 0.34650  0.28620  0.17627  Biso   1.000  C 
  H6       1.0000 0.35134  0.31870  0.21239  Biso   1.000  H 
  C30      1.0000 0.42340  0.21960  0.10327  Biso   1.000  C 
  H7       1.0000 0.48109  0.20997  0.08924  Biso   1.000  H 
  O12      1.0000 0.85290  0.11930  0.11257  Biso   1.000  O 
  C31      1.0000 0.84170  0.10430  0.16587  Biso   1.000  C 
  O13      1.0000 0.90090  0.17640  0.20397  Biso   1.000  O 
  C32      1.0000 0.75060  0.99470  0.18827  Biso   1.000  C 
  C33      1.0000 0.65350  0.93970  0.15707  Biso   1.000  C 
  H8       1.0000 0.64866  0.96736  0.12095  Biso   1.000  H 
  C34      1.0000 0.76400  0.94870  0.23997  Biso   1.000  C 
  H9       1.0000 0.83105  0.98453  0.26034  Biso   1.000  H 
  O14      1.0000 0.81480  0.23330  0.00700  Biso   1.000  O 
  C35      1.0000 0.84560  0.32830  0.98613  Biso   1.000  C 
  O15      1.0000 0.92330  0.41240  0.00863  Biso   1.000  O 
  C36      1.0000 0.78820  0.33980  0.93393  Biso   1.000  C 
  C37      1.0000 0.68680  0.25110  0.91513  Biso   1.000  C 
  H10      1.0000 0.65277  0.18481  0.93622  Biso   1.000  H 
  C38      1.0000 0.63670  0.26130  0.86543  Biso   1.000  C 
  C39      1.0000 0.52570  0.16190  0.84583  Biso   1.000  C 
  O16      1.0000 0.49060  0.16730  0.79643  Biso   1.000  O 
  O17      1.0000 0.47810  0.08160  0.88093  Biso   1.000  O 
  C40      1.0000 0.68470  0.35980  0.83453  Biso   1.000  C 
  H11      1.0000 0.65046  0.36598  0.80102  Biso   1.000  H 
  C41      1.0000 0.78560  0.45080  0.85383  Biso   1.000  C 
  C42      1.0000 0.83440  0.43840  0.90313  Biso   1.000  C 
  H12      1.0000 0.90103  0.49870  0.91621  Biso   1.000  H 
  C43      1.0000 0.84060  0.55970  0.82113  Biso   1.000  C 
  C44      1.0000 0.93970  0.65350  0.84293  Biso   1.000  C 
  H13      1.0000 0.96736  0.64866  0.87905  Biso   1.000  H 
  C45      1.0000 0.99470  0.75060  0.81173  Biso   1.000  C 
  C46      1.0000 0.94870  0.76400  0.76003  Biso   1.000  C 
  H14      1.0000 0.98453  0.83105  0.73966  Biso   1.000  H 
  C47      1.0000 0.84860  0.67560  0.73973  Biso   1.000  C 
  C48      1.0000 0.79440  0.68910  0.68473  Biso   1.000  C 
  Tb6      1.0000 0.66650  0.69491  0.58970  Biso   1.000  Tb
  O18      1.0000 0.50940  0.67670  0.53690  Biso   1.000  O 
  C49      1.0000 0.47430  0.63620  0.48750  Biso   1.000  C 
  O19      1.0000 0.52190  0.60350  0.45240  Biso   1.000  O 
  C50      1.0000 0.36330  0.62460  0.46790  Biso   1.000  C 
  C51      1.0000 0.31530  0.67510  0.49880  Biso   1.000  C 
  H15      1.0000 0.34954  0.71553  0.53231  Biso   1.000  H 
  C52      1.0000 0.21440  0.66520  0.47950  Biso   1.000  C 
  C53      1.0000 0.16560  0.60400  0.43020  Biso   1.000  C 
  H16      1.0000 0.09897  0.59767  0.41713  Biso   1.000  H 
  C54      1.0000 0.21180  0.55160  0.39940  Biso   1.000  C 
  C55      1.0000 0.15440  0.48270  0.34720  Biso   1.000  C 
  O20      1.0000 0.18520  0.41850  0.32633  Biso   1.000  O 
  O21      1.0000 0.07670  0.48910  0.32470  Biso   1.000  O 
  C56      1.0000 0.31320  0.56430  0.41820  Biso   1.000  C 
  H17      1.0000 0.34723  0.53204  0.39711  Biso   1.000  H 
  C57      1.0000 0.15940  0.71910  0.51220  Biso   1.000  C 
  C58      1.0000 0.06030  0.71380  0.49040  Biso   1.000  C 
  H18      1.0000 0.03264  0.68130  0.45428  Biso   1.000  H 
  C59      1.0000 0.00530  0.75590  0.52160  Biso   1.000  C 
  C60      1.0000 0.05130  0.81530  0.57330  Biso   1.000  C 
  C61      1.0000 0.15140  0.82700  0.59360  Biso   1.000  C 
  C62      1.0000 0.20380  0.78040  0.56340  Biso   1.000  C 
  H19      1.0000 0.27112  0.79003  0.57742  Biso   1.000  H 
  C63      1.0000 0.20560  0.89470  0.64860  Biso   1.000  C 
  O22      1.0000 0.18370  0.96720  0.66570  Biso   1.000  O 
  O23      1.0000 0.27510  0.87600  0.67350  Biso   1.000  O 
  H20      1.0000 0.01547  0.84652  0.59367  Biso   1.000  H 
  C64      1.0000 0.89570  0.73740  0.49920  Biso   1.000  C 
  O24      1.0000 0.82360  0.72450  0.53730  Biso   1.000  O 
  O25      1.0000 0.88070  0.73360  0.44590  Biso   1.000  O 
  C65      1.0000 0.51730  0.67170  0.68053  Biso   1.000  C 
  O26      1.0000 0.58150  0.76670  0.65966  Biso   1.000  O 
  O27      1.0000 0.51090  0.58760  0.65803  Biso   1.000  O 
  C66      1.0000 0.44840  0.66020  0.73273  Biso   1.000  C 
  C67      1.0000 0.43570  0.74890  0.75153  Biso   1.000  C 
  H21      1.0000 0.46796  0.81519  0.73044  Biso   1.000  H 
  C68      1.0000 0.37540  0.73870  0.80123  Biso   1.000  C 
  C69      1.0000 0.32490  0.64020  0.83213  Biso   1.000  C 
  H22      1.0000 0.28447  0.63402  0.86565  Biso   1.000  H 
  C70      1.0000 0.33480  0.54920  0.81283  Biso   1.000  C 
  C71      1.0000 0.39600  0.56160  0.76353  Biso   1.000  C 
  H23      1.0000 0.40233  0.50130  0.75046  Biso   1.000  H 
  C72      1.0000 0.28090  0.44030  0.84553  Biso   1.000  C 
  C73      1.0000 0.28620  0.34650  0.82373  Biso   1.000  C 
  H24      1.0000 0.31870  0.35134  0.78761  Biso   1.000  H 
  C74      1.0000 0.21960  0.42340  0.89673  Biso   1.000  C 
  H25      1.0000 0.20997  0.48109  0.91076  Biso   1.000  H 
  O28      1.0000 0.60350  0.52190  0.54760  Biso   1.000  O 
  C75      1.0000 0.63620  0.47430  0.51250  Biso   1.000  C 
  O29      1.0000 0.67670  0.50940  0.46310  Biso   1.000  O 
  C76      1.0000 0.62460  0.36330  0.53210  Biso   1.000  C 
  C77      1.0000 0.67510  0.31530  0.50120  Biso   1.000  C 
  H26      1.0000 0.71553  0.34954  0.46769  Biso   1.000  H 
  C78      1.0000 0.66520  0.21440  0.52050  Biso   1.000  C 
  C79      1.0000 0.60400  0.16560  0.56980  Biso   1.000  C 
  H27      1.0000 0.59767  0.09897  0.58287  Biso   1.000  H 
  C80      1.0000 0.55160  0.21180  0.60060  Biso   1.000  C 
  C81      1.0000 0.48270  0.15440  0.65280  Biso   1.000  C 
  O30      1.0000 0.41850  0.18520  0.67367  Biso   1.000  O 
  O31      1.0000 0.48910  0.07670  0.67530  Biso   1.000  O 
  C82      1.0000 0.56430  0.31320  0.58180  Biso   1.000  C 
  H28      1.0000 0.53204  0.34723  0.60289  Biso   1.000  H 
  C83      1.0000 0.71910  0.15940  0.48780  Biso   1.000  C 
  C84      1.0000 0.71380  0.06030  0.50960  Biso   1.000  C 
  H29      1.0000 0.68130  0.03264  0.54572  Biso   1.000  H 
  C85      1.0000 0.75590  0.00530  0.47840  Biso   1.000  C 
  C86      1.0000 0.81530  0.05130  0.42670  Biso   1.000  C 
  H30      1.0000 0.84652  0.01547  0.40633  Biso   1.000  H 
  C87      1.0000 0.82700  0.15140  0.40640  Biso   1.000  C 
  C88      1.0000 0.89470  0.20560  0.35140  Biso   1.000  C 
  O32      1.0000 0.96720  0.18370  0.33430  Biso   1.000  O 
  O33      1.0000 0.87600  0.27510  0.32650  Biso   1.000  O 
  C89      1.0000 0.78040  0.20380  0.43660  Biso   1.000  C 
  H31      1.0000 0.79003  0.27112  0.42258  Biso   1.000  H 
  C90      1.0000 0.73740  0.89570  0.50080  Biso   1.000  C 
  O34      1.0000 0.72450  0.82360  0.46270  Biso   1.000  O 
  O35      1.0000 0.73360  0.88070  0.55410  Biso   1.000  O 
  O36      1.0000 0.72490  0.60090  0.65983  Biso   1.000  O 
  O37      1.0000 0.81630  0.78350  0.66763  Biso   1.000  O 
  C91      1.0000 0.79620  0.57660  0.76993  Biso   1.000  C 
  H32      1.0000 0.72888  0.51891  0.75591  Biso   1.000  H 
  C92      1.0000 0.10430  0.84170  0.83413  Biso   1.000  C 
  O38      1.0000 0.17640  0.90090  0.79603  Biso   1.000  O 
  O39      1.0000 0.11930  0.85290  0.88743  Biso   1.000  O 
  O40      1.0000 0.03280  0.21650  0.99903  Biso   1.000  O 
  O41      1.0000 0.09910  0.27550  0.12937  Biso   1.000  O 
  O42      1.0000 0.08160  0.47810  0.11907  Biso   1.000  O 
  O43      1.0000 0.27550  0.09910  0.87063  Biso   1.000  O 
  O44      1.0000 0.41240  0.92330  0.99137  Biso   1.000  O 
  C93      1.0000 0.32830  0.84560  0.01387  Biso   1.000  C 
  O45      1.0000 0.23330  0.81480  0.99300  Biso   1.000  O 
  C94      1.0000 0.33980  0.78820  0.06607  Biso   1.000  C 
  C95      1.0000 0.25110  0.68680  0.08487  Biso   1.000  C 
  H33      1.0000 0.18481  0.65277  0.06378  Biso   1.000  H 
  C96      1.0000 0.43840  0.83440  0.09687  Biso   1.000  C 
  H34      1.0000 0.49870  0.90103  0.08379  Biso   1.000  H 
  O46      1.0000 0.39910  0.12400  0.99317  Biso   1.000  O 
  O47      1.0000 0.21650  0.03280  0.00097  Biso   1.000  O 
  H35      1.0000 0.16895  0.15348  0.07300  Biso   1.000  H 
  O48      1.0000 0.14710  0.26640  0.22077  Biso   1.000  O 
  H36      1.0000 0.51891  0.72888  0.24409  Biso   1.000  H 
