data_image0
_cell_length_a       8.5707
_cell_length_b       9.8985
_cell_length_c       14.2812
_cell_angle_alpha    104.986
_cell_angle_beta     102.291
_cell_angle_gamma    91.286

_symmetry_space_group_name_H-M    "P 1"
_symmetry_int_tables_number       1

loop_
  _symmetry_equiv_pos_as_xyz
  'x, y, z'

loop_
  _atom_site_label
  _atom_site_occupancy
  _atom_site_fract_x
  _atom_site_fract_y
  _atom_site_fract_z
  _atom_site_thermal_displace_type
  _atom_site_B_iso_or_equiv
  _atom_site_type_symbol
  Zn1      1.0000 0.66780  0.58387  0.53828  Biso   1.000  Zn
  O1       1.0000 0.48830  0.52910  0.59940  Biso   1.000  O 
  Zn2      1.0000 0.33220  0.41613  0.46172  Biso   1.000  Zn
  O2       1.0000 0.41510  0.22720  0.47570  Biso   1.000  O 
  C1       1.0000 0.46530  0.19580  0.55620  Biso   1.000  C 
  O3       1.0000 0.49420  0.28090  0.64070  Biso   1.000  O 
  C2       1.0000 0.49170  0.04300  0.54990  Biso   1.000  C 
  H1       1.0000 0.40230  0.00120  0.56740  Biso   1.000  H 
  H2       1.0000 0.58770  0.03890  0.59900  Biso   1.000  H 
  C3       1.0000 0.50830  0.95700  0.45010  Biso   1.000  C 
  H3       1.0000 0.41230  0.96110  0.40100  Biso   1.000  H 
  H4       1.0000 0.59770  0.99880  0.43260  Biso   1.000  H 
  C4       1.0000 0.53470  0.80420  0.44380  Biso   1.000  C 
  O4       1.0000 0.58490  0.77280  0.52430  Biso   1.000  O 
  O5       1.0000 0.50580  0.71910  0.35930  Biso   1.000  O 
  O6       1.0000 0.15450  0.38450  0.54400  Biso   1.000  O 
  C5       1.0000 0.14100  0.40190  0.63000  Biso   1.000  C 
  O7       1.0000 0.20680  0.50810  0.70230  Biso   1.000  O 
  Zn3      1.0000 0.33695  0.63936  0.66121  Biso   1.000  Zn
  O8       1.0000 0.22330  0.75870  0.58680  Biso   1.000  O 
  C6       1.0000 0.17970  0.71050  0.49290  Biso   1.000  C 
  C7       1.0000 0.07450  0.79760  0.43780  Biso   1.000  C 
  H5       1.0000 0.14090  0.86100  0.41800  Biso   1.000  H 
  H6       1.0000 0.01400  0.85380  0.48160  Biso   1.000  H 
  C8       1.0000 0.95860  0.70560  0.34540  Biso   1.000  C 
  H7       1.0000 0.88820  0.76470  0.31420  Biso   1.000  H 
  H8       1.0000 0.01900  0.65820  0.29810  Biso   1.000  H 
  C9       1.0000 0.85900  0.59810  0.37000  Biso   1.000  C 
  O9       1.0000 0.79320  0.49190  0.29770  Biso   1.000  O 
  Zn4      1.0000 0.66305  0.36064  0.33879  Biso   1.000  Zn
  O10      1.0000 0.77670  0.24130  0.41320  Biso   1.000  O 
  C10      1.0000 0.82030  0.28950  0.50710  Biso   1.000  C 
  C11      1.0000 0.92550  0.20240  0.56220  Biso   1.000  C 
  H9       1.0000 0.98600  0.14620  0.51840  Biso   1.000  H 
  H10      1.0000 0.85910  0.13900  0.58200  Biso   1.000  H 
  C12      1.0000 0.04140  0.29440  0.65460  Biso   1.000  C 
  H11      1.0000 0.11180  0.23530  0.68580  Biso   1.000  H 
  H12      1.0000 0.98100  0.34180  0.70190  Biso   1.000  H 
  O11      1.0000 0.78190  0.40130  0.55640  Biso   1.000  O 
  N1       1.0000 0.53530  0.22900  0.20880  Biso   1.000  N 
  C13      1.0000 0.47010  0.10540  0.20550  Biso   1.000  C 
  H13      1.0000 0.49680  0.07170  0.26140  Biso   1.000  H 
  C14      1.0000 0.36290  0.02380  0.12160  Biso   1.000  C 
  C15      1.0000 0.32550  0.07120  0.03960  Biso   1.000  C 
  C16      1.0000 0.39180  0.19540  0.04190  Biso   1.000  C 
  C17      1.0000 0.49860  0.27290  0.12720  Biso   1.000  C 
  H14      1.0000 0.54590  0.35840  0.12720  Biso   1.000  H 
  H15      1.0000 0.36650  0.22990  0.98630  Biso   1.000  H 
  N2       1.0000 0.21190  0.00310  0.94040  Biso   1.000  N 
  N3       1.0000 0.15230  0.90400  0.94580  Biso   1.000  N 
  C18      1.0000 0.04230  0.83960  0.84720  Biso   1.000  C 
  C19      1.0000 0.01950  0.88880  0.76540  Biso   1.000  C 
  H16      1.0000 0.07610  0.97080  0.76690  Biso   1.000  H 
  C20      1.0000 0.90870  0.81380  0.67780  Biso   1.000  C 
  H17      1.0000 0.89140  0.84840  0.62210  Biso   1.000  H 
  N4       1.0000 0.82910  0.69540  0.67360  Biso   1.000  N 
  C21      1.0000 0.85620  0.64810  0.75520  Biso   1.000  C 
  H18      1.0000 0.80170  0.56430  0.75230  Biso   1.000  H 
  C22      1.0000 0.96040  0.71760  0.84250  Biso   1.000  C 
  H19      1.0000 0.97500  0.68190  0.89770  Biso   1.000  H 
  H20      1.0000 0.31760  0.93760  0.12180  Biso   1.000  H 
  O12      1.0000 0.51170  0.47090  0.40060  Biso   1.000  O 
  O13      1.0000 0.84550  0.61550  0.45600  Biso   1.000  O 
  O14      1.0000 0.21810  0.59870  0.44360  Biso   1.000  O 
  N5       1.0000 0.46470  0.77100  0.79120  Biso   1.000  N 
  C23      1.0000 0.52990  0.89460  0.79450  Biso   1.000  C 
  H21      1.0000 0.50320  0.92830  0.73860  Biso   1.000  H 
  C24      1.0000 0.63710  0.97620  0.87840  Biso   1.000  C 
  H22      1.0000 0.68240  0.06240  0.87820  Biso   1.000  H 
  C25      1.0000 0.67450  0.92880  0.96040  Biso   1.000  C 
  C26      1.0000 0.60820  0.80460  0.95810  Biso   1.000  C 
  C27      1.0000 0.50140  0.72710  0.87280  Biso   1.000  C 
  H23      1.0000 0.45410  0.64160  0.87280  Biso   1.000  H 
  H24      1.0000 0.63350  0.77010  0.01370  Biso   1.000  H 
  N6       1.0000 0.78810  0.99690  0.05960  Biso   1.000  N 
  N7       1.0000 0.84770  0.09600  0.05420  Biso   1.000  N 
  C28      1.0000 0.95770  0.16040  0.15280  Biso   1.000  C 
  C29      1.0000 0.98050  0.11120  0.23460  Biso   1.000  C 
  H25      1.0000 0.92390  0.02920  0.23310  Biso   1.000  H 
  C30      1.0000 0.09130  0.18620  0.32220  Biso   1.000  C 
  H26      1.0000 0.10860  0.15160  0.37790  Biso   1.000  H 
  N8       1.0000 0.17090  0.30460  0.32640  Biso   1.000  N 
  C31      1.0000 0.14380  0.35190  0.24480  Biso   1.000  C 
  C32      1.0000 0.03960  0.28240  0.15750  Biso   1.000  C 
  H27      1.0000 0.02500  0.31810  0.10230  Biso   1.000  H 
  H28      1.0000 0.19830  0.43570  0.24770  Biso   1.000  H 
