data_image0
_cell_length_a       25.9382
_cell_length_b       25.9382
_cell_length_c       6.83904
_cell_angle_alpha    90
_cell_angle_beta     90
_cell_angle_gamma    120

_symmetry_space_group_name_H-M    "P 1"
_symmetry_int_tables_number       1

loop_
  _symmetry_equiv_pos_as_xyz
  'x, y, z'

loop_
  _atom_site_label
  _atom_site_occupancy
  _atom_site_fract_x
  _atom_site_fract_y
  _atom_site_fract_z
  _atom_site_thermal_displace_type
  _atom_site_B_iso_or_equiv
  _atom_site_type_symbol
  C1       1.0000 0.00970  0.50070  0.80600  Biso   1.000  C 
  C2       1.0000 0.00760  0.45450  0.92500  Biso   1.000  C 
  O1       1.0000 0.02060  0.41020  0.84430  Biso   1.000  O 
  Zn1      1.0000 0.04779  0.36082  0.97013  Biso   1.000  Zn
  Zn2      1.0000 0.97970  0.28555  0.30347  Biso   1.000  Zn
  O2       1.0000 0.05627  0.31273  0.17763  Biso   1.000  O 
  C3       1.0000 0.11357  0.32573  0.25833  Biso   1.000  C 
  C4       1.0000 0.15767  0.32363  0.13933  Biso   1.000  C 
  C5       1.0000 0.20707  0.32803  0.21233  Biso   1.000  C 
  C6       1.0000 0.21977  0.34093  0.40833  Biso   1.000  C 
  O3       1.0000 0.27707  0.35393  0.48903  Biso   1.000  O 
  Zn3      1.0000 0.28555  0.30584  0.69653  Biso   1.000  Zn
  Zn4      1.0000 0.36082  0.31304  0.02987  Biso   1.000  Zn
  O4       1.0000 0.41020  0.38960  0.15570  Biso   1.000  O 
  Zn5      1.0000 0.35363  0.38112  0.36320  Biso   1.000  Zn
  O5       1.0000 0.40690  0.43890  0.55770  Biso   1.000  O 
  C7       1.0000 0.40490  0.42310  0.73300  Biso   1.000  C 
  O6       1.0000 0.36180  0.36830  0.79850  Biso   1.000  O 
  C8       1.0000 0.45430  0.45960  0.87900  Biso   1.000  C 
  C9       1.0000 0.45450  0.44690  0.07500  Biso   1.000  C 
  C10      1.0000 0.50070  0.49100  0.19400  Biso   1.000  C 
  H1       1.0000 0.49893  0.48378  0.35130  Biso   1.000  H 
  C11      1.0000 0.54570  0.54040  0.12100  Biso   1.000  C 
  C12      1.0000 0.59510  0.57690  0.26700  Biso   1.000  C 
  O7       1.0000 0.59310  0.56110  0.44230  Biso   1.000  O 
  Zn6      1.0000 0.64637  0.61888  0.63680  Biso   1.000  Zn
  Zn7      1.0000 0.71445  0.69416  0.30347  Biso   1.000  Zn
  O8       1.0000 0.68727  0.74353  0.17763  Biso   1.000  O 
  C13      1.0000 0.67427  0.78783  0.25833  Biso   1.000  C 
  C14      1.0000 0.67637  0.83403  0.13933  Biso   1.000  C 
  C15      1.0000 0.67197  0.87903  0.21233  Biso   1.000  C 
  C16      1.0000 0.65907  0.87883  0.40833  Biso   1.000  C 
  O9       1.0000 0.64607  0.92313  0.48903  Biso   1.000  O 
  Zn8      1.0000 0.61888  0.97251  0.36320  Biso   1.000  Zn
  Zn9      1.0000 0.69416  0.97970  0.69653  Biso   1.000  Zn
  O10      1.0000 0.69513  0.03497  0.46517  Biso   1.000  O 
  C17      1.0000 0.73823  0.08977  0.39967  Biso   1.000  C 
  O11      1.0000 0.74023  0.10557  0.22437  Biso   1.000  O 
  Zn10     1.0000 0.68696  0.04779  0.02987  Biso   1.000  Zn
  O12      1.0000 0.61040  0.02060  0.15570  Biso   1.000  O 
  C18      1.0000 0.55310  0.00760  0.07500  Biso   1.000  C 
  C19      1.0000 0.50900  0.00970  0.19400  Biso   1.000  C 
  C20      1.0000 0.45960  0.00530  0.12100  Biso   1.000  C 
  C21      1.0000 0.42310  0.01820  0.26700  Biso   1.000  C 
  O13      1.0000 0.36830  0.00650  0.20150  Biso   1.000  O 
  Zn11     1.0000 0.30584  0.02030  0.30347  Biso   1.000  Zn
  O14      1.0000 0.25647  0.94373  0.17763  Biso   1.000  O 
  C22      1.0000 0.21217  0.88643  0.25833  Biso   1.000  C 
  C23      1.0000 0.16597  0.84233  0.13933  Biso   1.000  C 
  C24      1.0000 0.12097  0.79293  0.21233  Biso   1.000  C 
  C25      1.0000 0.12117  0.78023  0.40833  Biso   1.000  C 
  O15      1.0000 0.07687  0.72293  0.48903  Biso   1.000  O 
  Zn12     1.0000 0.02749  0.64637  0.36320  Biso   1.000  Zn
  Zn13     1.0000 0.02030  0.71445  0.69653  Biso   1.000  Zn
  Zn14     1.0000 0.95221  0.63918  0.02987  Biso   1.000  Zn
  O16      1.0000 0.02847  0.70163  0.13183  Biso   1.000  O 
  C26      1.0000 0.07157  0.75643  0.06633  Biso   1.000  C 
  O17      1.0000 0.07357  0.77223  0.89103  Biso   1.000  O 
  O18      1.0000 0.97940  0.58980  0.15570  Biso   1.000  O 
  C27      1.0000 0.99240  0.54550  0.07500  Biso   1.000  C 
  C28      1.0000 0.99030  0.49930  0.19400  Biso   1.000  C 
  C29      1.0000 0.99470  0.45430  0.12100  Biso   1.000  C 
  C30      1.0000 0.98180  0.40490  0.26700  Biso   1.000  C 
  O19      1.0000 0.99350  0.36180  0.20150  Biso   1.000  O 
  O20      1.0000 0.96800  0.40690  0.44230  Biso   1.000  O 
  Zn15     1.0000 0.97251  0.35363  0.63680  Biso   1.000  Zn
  O21      1.0000 0.03497  0.33983  0.53483  Biso   1.000  O 
  C31      1.0000 0.08977  0.35153  0.60033  Biso   1.000  C 
  O22      1.0000 0.10557  0.36533  0.77563  Biso   1.000  O 
  C32      1.0000 0.12627  0.33863  0.45433  Biso   1.000  C 
  C33      1.0000 0.17567  0.34303  0.52733  Biso   1.000  C 
  H2       1.0000 0.18288  0.34848  0.68464  Biso   1.000  H 
  O23      1.0000 0.92313  0.27707  0.51097  Biso   1.000  O 
  C34      1.0000 0.87883  0.21977  0.59167  Biso   1.000  C 
  C35      1.0000 0.83263  0.17567  0.47267  Biso   1.000  C 
  C36      1.0000 0.78763  0.12627  0.54567  Biso   1.000  C 
  C37      1.0000 0.78783  0.11357  0.74167  Biso   1.000  C 
  O24      1.0000 0.74353  0.05627  0.82237  Biso   1.000  O 
  C38      1.0000 0.83403  0.15767  0.86067  Biso   1.000  C 
  C39      1.0000 0.87903  0.20707  0.78767  Biso   1.000  C 
  C40      1.0000 0.92843  0.24357  0.93367  Biso   1.000  C 
  O25      1.0000 0.97153  0.29837  0.86817  Biso   1.000  O 
  O26      1.0000 0.92643  0.22777  0.10897  Biso   1.000  O 
  H3       1.0000 0.83226  0.15045  0.01797  Biso   1.000  H 
  H4       1.0000 0.83441  0.18288  0.31536  Biso   1.000  H 
  H5       1.0000 0.98486  0.50107  0.35130  Biso   1.000  H 
  C41      1.0000 0.00530  0.54570  0.87900  Biso   1.000  C 
  C42      1.0000 0.01820  0.59510  0.73300  Biso   1.000  C 
  O27      1.0000 0.03200  0.59310  0.55770  Biso   1.000  O 
  O28      1.0000 0.00650  0.63820  0.79850  Biso   1.000  O 
  O29      1.0000 0.94373  0.68727  0.82237  Biso   1.000  O 
  C43      1.0000 0.88643  0.67427  0.74167  Biso   1.000  C 
  C44      1.0000 0.84233  0.67637  0.86067  Biso   1.000  C 
  C45      1.0000 0.79293  0.67197  0.78767  Biso   1.000  C 
  C46      1.0000 0.75643  0.68487  0.93367  Biso   1.000  C 
  O30      1.0000 0.70163  0.67317  0.86817  Biso   1.000  O 
  Zn16     1.0000 0.63918  0.68696  0.97013  Biso   1.000  Zn
  O31      1.0000 0.63820  0.63170  0.20150  Biso   1.000  O 
  O32      1.0000 0.58980  0.61040  0.84430  Biso   1.000  O 
  C47      1.0000 0.54550  0.55310  0.92500  Biso   1.000  C 
  C48      1.0000 0.49930  0.50900  0.80600  Biso   1.000  C 
  H6       1.0000 0.50107  0.51622  0.64870  Biso   1.000  H 
  O33      1.0000 0.63467  0.74023  0.77563  Biso   1.000  O 
  C49      1.0000 0.64847  0.73823  0.60033  Biso   1.000  C 
  O34      1.0000 0.66017  0.69513  0.53483  Biso   1.000  O 
  C50      1.0000 0.66137  0.78763  0.45433  Biso   1.000  C 
  C51      1.0000 0.65697  0.83263  0.52733  Biso   1.000  C 
  H7       1.0000 0.65152  0.83441  0.68464  Biso   1.000  H 
  O35      1.0000 0.77223  0.69867  0.10897  Biso   1.000  O 
  C52      1.0000 0.78023  0.65907  0.59167  Biso   1.000  C 
  O36      1.0000 0.72293  0.64607  0.51097  Biso   1.000  O 
  C53      1.0000 0.82433  0.65697  0.47267  Biso   1.000  C 
  H8       1.0000 0.81712  0.65152  0.31536  Biso   1.000  H 
  C54      1.0000 0.87373  0.66137  0.54567  Biso   1.000  C 
  C55      1.0000 0.91023  0.64847  0.39967  Biso   1.000  C 
  O37      1.0000 0.89443  0.63467  0.22437  Biso   1.000  O 
  O38      1.0000 0.96503  0.66017  0.46517  Biso   1.000  O 
  H9       1.0000 0.84955  0.68181  0.01797  Biso   1.000  H 
  C56      1.0000 0.16737  0.82433  0.52733  Biso   1.000  C 
  H10      1.0000 0.16559  0.81712  0.68464  Biso   1.000  H 
  C57      1.0000 0.21237  0.87373  0.45433  Biso   1.000  C 
  C58      1.0000 0.26177  0.91023  0.60033  Biso   1.000  C 
  O39      1.0000 0.25977  0.89443  0.77563  Biso   1.000  O 
  Zn17     1.0000 0.31304  0.95221  0.97013  Biso   1.000  Zn
  O40      1.0000 0.32683  0.02847  0.86817  Biso   1.000  O 
  Zn18     1.0000 0.38112  0.02749  0.63680  Biso   1.000  Zn
  O41      1.0000 0.38960  0.97940  0.84430  Biso   1.000  O 
  C59      1.0000 0.44690  0.99240  0.92500  Biso   1.000  C 
  C60      1.0000 0.49100  0.99030  0.80600  Biso   1.000  C 
  H11      1.0000 0.48378  0.98486  0.64870  Biso   1.000  H 
  C61      1.0000 0.54040  0.99470  0.87900  Biso   1.000  C 
  C62      1.0000 0.57690  0.98180  0.73300  Biso   1.000  C 
  O42      1.0000 0.56110  0.96800  0.55770  Biso   1.000  O 
  O43      1.0000 0.63170  0.99350  0.79850  Biso   1.000  O 
  O44      1.0000 0.35393  0.07687  0.51097  Biso   1.000  O 
  C63      1.0000 0.34093  0.12117  0.59167  Biso   1.000  C 
  C64      1.0000 0.34303  0.16737  0.47267  Biso   1.000  C 
  C65      1.0000 0.33863  0.21237  0.54567  Biso   1.000  C 
  C66      1.0000 0.32573  0.21217  0.74167  Biso   1.000  C 
  O45      1.0000 0.31273  0.25647  0.82237  Biso   1.000  O 
  C67      1.0000 0.32363  0.16597  0.86067  Biso   1.000  C 
  C68      1.0000 0.32803  0.12097  0.78767  Biso   1.000  C 
  C69      1.0000 0.31513  0.07157  0.93367  Biso   1.000  C 
  O46      1.0000 0.30133  0.07357  0.10897  Biso   1.000  O 
  H12      1.0000 0.31819  0.16774  0.01797  Biso   1.000  H 
  C70      1.0000 0.35153  0.26177  0.39967  Biso   1.000  C 
  O47      1.0000 0.33983  0.30487  0.46517  Biso   1.000  O 
  O48      1.0000 0.36533  0.25977  0.22437  Biso   1.000  O 
  H13      1.0000 0.34848  0.16559  0.31536  Biso   1.000  H 
  O49      1.0000 0.43890  0.03200  0.44230  Biso   1.000  O 
  O50      1.0000 0.30487  0.96503  0.53483  Biso   1.000  O 
  H14      1.0000 0.16774  0.84955  0.98203  Biso   1.000  H 
  H15      1.0000 0.51622  0.01514  0.35130  Biso   1.000  H 
  O51      1.0000 0.67317  0.97153  0.13183  Biso   1.000  O 
  C71      1.0000 0.68487  0.92843  0.06633  Biso   1.000  C 
  O52      1.0000 0.69867  0.92643  0.89103  Biso   1.000  O 
  H16      1.0000 0.68181  0.83226  0.98203  Biso   1.000  H 
  O53      1.0000 0.29837  0.32683  0.13183  Biso   1.000  O 
  C72      1.0000 0.24357  0.31513  0.06633  Biso   1.000  C 
  O54      1.0000 0.22777  0.30133  0.89103  Biso   1.000  O 
  H17      1.0000 0.15045  0.31819  0.98203  Biso   1.000  H 
  H18      1.0000 0.01514  0.49893  0.64870  Biso   1.000  H 
