data_image0
_cell_length_a       25.915
_cell_length_b       25.915
_cell_length_c       6.27868
_cell_angle_alpha    90
_cell_angle_beta     90
_cell_angle_gamma    120

_symmetry_space_group_name_H-M    "P 1"
_symmetry_int_tables_number       1

loop_
  _symmetry_equiv_pos_as_xyz
  'x, y, z'

loop_
  _atom_site_label
  _atom_site_occupancy
  _atom_site_fract_x
  _atom_site_fract_y
  _atom_site_fract_z
  _atom_site_thermal_displace_type
  _atom_site_B_iso_or_equiv
  _atom_site_type_symbol
  Cu1      1.0000 0.29543  0.28015  0.34220  Biso   1.000  Cu
  O1       1.0000 0.25190  0.30740  0.17030  Biso   1.000  O 
  Cu2      1.0000 0.31805  0.37124  0.00887  Biso   1.000  Cu
  O2       1.0000 0.36397  0.38543  0.26803  Biso   1.000  O 
  C1       1.0000 0.42037  0.40933  0.29903  Biso   1.000  C 
  O3       1.0000 0.44107  0.39993  0.46333  Biso   1.000  O 
  Cu3      1.0000 0.38652  0.34861  0.67553  Biso   1.000  Cu
  O4       1.0000 0.35927  0.27783  0.50363  Biso   1.000  O 
  C2       1.0000 0.34747  0.22373  0.58623  Biso   1.000  C 
  C3       1.0000 0.35467  0.18203  0.45873  Biso   1.000  C 
  C4       1.0000 0.33917  0.12613  0.53183  Biso   1.000  C 
  C5       1.0000 0.31920  0.10960  0.74710  Biso   1.000  C 
  O5       1.0000 0.30740  0.05550  0.82970  Biso   1.000  O 
  Cu4      1.0000 0.28015  0.98472  0.65780  Biso   1.000  Cu
  Cu5      1.0000 0.34861  0.96210  0.32447  Biso   1.000  Cu
  O6       1.0000 0.30270  0.94790  0.06530  Biso   1.000  O 
  Cu6      1.0000 0.37124  0.05318  0.99113  Biso   1.000  Cu
  O7       1.0000 0.38543  0.02147  0.73197  Biso   1.000  O 
  C6       1.0000 0.40933  0.98897  0.70097  Biso   1.000  C 
  O8       1.0000 0.39993  0.95887  0.53667  Biso   1.000  O 
  C7       1.0000 0.45363  0.99417  0.86517  Biso   1.000  C 
  C8       1.0000 0.45707  0.01413  0.08043  Biso   1.000  C 
  O9       1.0000 0.41477  0.02593  0.16303  Biso   1.000  O 
  C9       1.0000 0.50597  0.02133  0.20793  Biso   1.000  C 
  H1       1.0000 0.51135  0.03965  0.36778  Biso   1.000  H 
  C10      1.0000 0.54637  0.00583  0.13483  Biso   1.000  C 
  C11      1.0000 0.59067  0.01103  0.29903  Biso   1.000  C 
  O10      1.0000 0.60007  0.04113  0.46333  Biso   1.000  O 
  Cu7      1.0000 0.65139  0.03790  0.67553  Biso   1.000  Cu
  O11      1.0000 0.72217  0.08143  0.50363  Biso   1.000  O 
  Cu8      1.0000 0.71985  0.01528  0.34220  Biso   1.000  Cu
  O12      1.0000 0.77440  0.06660  0.13000  Biso   1.000  O 
  C12      1.0000 0.75370  0.07600  0.96570  Biso   1.000  C 
  O13      1.0000 0.69730  0.05210  0.93470  Biso   1.000  O 
  Cu9      1.0000 0.62876  0.94682  0.00887  Biso   1.000  Cu
  O14      1.0000 0.61457  0.97853  0.26803  Biso   1.000  O 
  O15      1.0000 0.69260  0.94450  0.17030  Biso   1.000  O 
  C13      1.0000 0.68080  0.89040  0.25290  Biso   1.000  C 
  C14      1.0000 0.68800  0.84870  0.12540  Biso   1.000  C 
  C15      1.0000 0.67250  0.79280  0.19850  Biso   1.000  C 
  C16      1.0000 0.65253  0.77627  0.41377  Biso   1.000  C 
  O16      1.0000 0.64073  0.72217  0.49637  Biso   1.000  O 
  Cu10     1.0000 0.70457  0.71985  0.65780  Biso   1.000  Cu
  O17      1.0000 0.63603  0.61457  0.73197  Biso   1.000  O 
  Cu11     1.0000 0.68195  0.62876  0.99113  Biso   1.000  Cu
  O18      1.0000 0.74810  0.69260  0.82970  Biso   1.000  O 
  C17      1.0000 0.79040  0.68080  0.74710  Biso   1.000  C 
  C18      1.0000 0.83930  0.68800  0.87460  Biso   1.000  C 
  C19      1.0000 0.87970  0.67250  0.80150  Biso   1.000  C 
  C20      1.0000 0.92400  0.67770  0.96570  Biso   1.000  C 
  O19      1.0000 0.94790  0.64520  0.93470  Biso   1.000  O 
  Cu12     1.0000 0.05318  0.68195  0.00887  Biso   1.000  Cu
  O20      1.0000 0.02147  0.63603  0.26803  Biso   1.000  O 
  Cu13     1.0000 0.98472  0.70457  0.34220  Biso   1.000  Cu
  Cu14     1.0000 0.96210  0.61348  0.67553  Biso   1.000  Cu
  O21      1.0000 0.95887  0.55893  0.46333  Biso   1.000  O 
  C21      1.0000 0.98897  0.57963  0.29903  Biso   1.000  C 
  C22      1.0000 0.99417  0.54053  0.13483  Biso   1.000  C 
  C23      1.0000 0.97867  0.48463  0.20793  Biso   1.000  C 
  H2       1.0000 0.96035  0.47170  0.36778  Biso   1.000  H 
  C24      1.0000 0.98587  0.44293  0.08043  Biso   1.000  C 
  O22      1.0000 0.97407  0.38883  0.16303  Biso   1.000  O 
  Cu15     1.0000 0.03790  0.38652  0.32447  Biso   1.000  Cu
  O23      1.0000 0.08143  0.35927  0.49637  Biso   1.000  O 
  Cu16     1.0000 0.01528  0.29543  0.65780  Biso   1.000  Cu
  O24      1.0000 0.06660  0.29220  0.87000  Biso   1.000  O 
  C25      1.0000 0.07600  0.32230  0.03430  Biso   1.000  C 
  O25      1.0000 0.05210  0.35480  0.06530  Biso   1.000  O 
  Cu17     1.0000 0.94682  0.31805  0.99113  Biso   1.000  Cu
  O26      1.0000 0.97853  0.36397  0.73197  Biso   1.000  O 
  C26      1.0000 0.01103  0.42037  0.70097  Biso   1.000  C 
  O27      1.0000 0.04113  0.44107  0.53667  Biso   1.000  O 
  C27      1.0000 0.00583  0.45947  0.86517  Biso   1.000  C 
  C28      1.0000 0.02133  0.51537  0.79207  Biso   1.000  C 
  H3       1.0000 0.03965  0.52830  0.63222  Biso   1.000  H 
  C29      1.0000 0.01413  0.55707  0.91957  Biso   1.000  C 
  O28      1.0000 0.02593  0.61117  0.83697  Biso   1.000  O 
  O29      1.0000 0.94450  0.25190  0.82970  Biso   1.000  O 
  C30      1.0000 0.89040  0.20960  0.74710  Biso   1.000  C 
  C31      1.0000 0.84870  0.16070  0.87460  Biso   1.000  C 
  C32      1.0000 0.79280  0.12030  0.80150  Biso   1.000  C 
  C33      1.0000 0.77627  0.12373  0.58623  Biso   1.000  C 
  C34      1.0000 0.81797  0.17263  0.45873  Biso   1.000  C 
  H4       1.0000 0.80503  0.17802  0.29888  Biso   1.000  H 
  C35      1.0000 0.87387  0.21303  0.53183  Biso   1.000  C 
  C36      1.0000 0.91297  0.25733  0.36763  Biso   1.000  C 
  O30      1.0000 0.89227  0.26673  0.20333  Biso   1.000  O 
  O31      1.0000 0.96937  0.28123  0.39863  Biso   1.000  O 
  H5       1.0000 0.86163  0.15531  0.03445  Biso   1.000  H 
  C37      1.0000 0.12030  0.32750  0.19850  Biso   1.000  C 
  C38      1.0000 0.12373  0.34747  0.41377  Biso   1.000  C 
  C39      1.0000 0.17263  0.35467  0.54127  Biso   1.000  C 
  H6       1.0000 0.17802  0.37299  0.70112  Biso   1.000  H 
  C40      1.0000 0.21303  0.33917  0.46817  Biso   1.000  C 
  C41      1.0000 0.25733  0.34437  0.63237  Biso   1.000  C 
  O32      1.0000 0.28123  0.31187  0.60137  Biso   1.000  O 
  O33      1.0000 0.26673  0.37447  0.79667  Biso   1.000  O 
  C42      1.0000 0.20960  0.31920  0.25290  Biso   1.000  C 
  C43      1.0000 0.16070  0.31200  0.12540  Biso   1.000  C 
  H7       1.0000 0.15531  0.29368  0.96555  Biso   1.000  H 
  O34      1.0000 0.91857  0.64073  0.50363  Biso   1.000  O 
  C44      1.0000 0.87627  0.65253  0.58623  Biso   1.000  C 
  C45      1.0000 0.82737  0.64533  0.45873  Biso   1.000  C 
  H8       1.0000 0.82198  0.62701  0.29888  Biso   1.000  H 
  C46      1.0000 0.78697  0.66083  0.53183  Biso   1.000  C 
  C47      1.0000 0.74267  0.65563  0.36763  Biso   1.000  C 
  O35      1.0000 0.73327  0.62553  0.20333  Biso   1.000  O 
  O36      1.0000 0.71877  0.68813  0.39863  Biso   1.000  O 
  Cu18     1.0000 0.61348  0.65139  0.32447  Biso   1.000  Cu
  O37      1.0000 0.61117  0.58523  0.16303  Biso   1.000  O 
  C48      1.0000 0.55707  0.54293  0.08043  Biso   1.000  C 
  C49      1.0000 0.51537  0.49403  0.20793  Biso   1.000  C 
  C50      1.0000 0.45947  0.45363  0.13483  Biso   1.000  C 
  C51      1.0000 0.44293  0.45707  0.91957  Biso   1.000  C 
  O38      1.0000 0.38883  0.41477  0.83697  Biso   1.000  O 
  C52      1.0000 0.48463  0.50597  0.79207  Biso   1.000  C 
  H9       1.0000 0.47170  0.51135  0.63222  Biso   1.000  H 
  C53      1.0000 0.54053  0.54637  0.86517  Biso   1.000  C 
  C54      1.0000 0.57963  0.59067  0.70097  Biso   1.000  C 
  O39      1.0000 0.55893  0.60007  0.53667  Biso   1.000  O 
  H10      1.0000 0.52830  0.48865  0.36778  Biso   1.000  H 
  O40      1.0000 0.64520  0.69730  0.06530  Biso   1.000  O 
  C55      1.0000 0.67770  0.75370  0.03430  Biso   1.000  C 
  O41      1.0000 0.70780  0.77440  0.87000  Biso   1.000  O 
  O42      1.0000 0.03063  0.71877  0.60137  Biso   1.000  O 
  C56      1.0000 0.08703  0.74267  0.63237  Biso   1.000  C 
  O43      1.0000 0.10773  0.73327  0.79667  Biso   1.000  O 
  C57      1.0000 0.12613  0.78697  0.46817  Biso   1.000  C 
  C58      1.0000 0.10960  0.79040  0.25290  Biso   1.000  C 
  O44      1.0000 0.05550  0.74810  0.17030  Biso   1.000  O 
  C59      1.0000 0.15130  0.83930  0.12540  Biso   1.000  C 
  C60      1.0000 0.20720  0.87970  0.19850  Biso   1.000  C 
  C61      1.0000 0.22373  0.87627  0.41377  Biso   1.000  C 
  O45      1.0000 0.27783  0.91857  0.49637  Biso   1.000  O 
  C62      1.0000 0.18203  0.82737  0.54127  Biso   1.000  C 
  H11      1.0000 0.19497  0.82198  0.70112  Biso   1.000  H 
  C63      1.0000 0.24630  0.92400  0.03430  Biso   1.000  C 
  O46      1.0000 0.22560  0.93340  0.87000  Biso   1.000  O 
  H12      1.0000 0.13837  0.84469  0.96555  Biso   1.000  H 
  O47      1.0000 0.93340  0.70780  0.13000  Biso   1.000  O 
  H13      1.0000 0.84469  0.70632  0.03445  Biso   1.000  H 
  C64      1.0000 0.64533  0.81797  0.54127  Biso   1.000  C 
  H14      1.0000 0.62701  0.80503  0.70112  Biso   1.000  H 
  C65      1.0000 0.66083  0.87387  0.46817  Biso   1.000  C 
  C66      1.0000 0.65563  0.91297  0.63237  Biso   1.000  C 
  O48      1.0000 0.62553  0.89227  0.79667  Biso   1.000  O 
  O49      1.0000 0.68813  0.96937  0.60137  Biso   1.000  O 
  H15      1.0000 0.70632  0.86163  0.96555  Biso   1.000  H 
  O50      1.0000 0.58523  0.97407  0.83697  Biso   1.000  O 
  C67      1.0000 0.54293  0.98587  0.91957  Biso   1.000  C 
  C68      1.0000 0.49403  0.97867  0.79207  Biso   1.000  C 
  H16      1.0000 0.48865  0.96035  0.63222  Biso   1.000  H 
  O51      1.0000 0.37447  0.10773  0.20333  Biso   1.000  O 
  C69      1.0000 0.34437  0.08703  0.36763  Biso   1.000  C 
  O52      1.0000 0.31187  0.03063  0.39863  Biso   1.000  O 
  C70      1.0000 0.31200  0.15130  0.87460  Biso   1.000  C 
  C71      1.0000 0.32750  0.20720  0.80150  Biso   1.000  C 
  C72      1.0000 0.32230  0.24630  0.96570  Biso   1.000  C 
  O53      1.0000 0.35480  0.30270  0.93470  Biso   1.000  O 
  O54      1.0000 0.29220  0.22560  0.13000  Biso   1.000  O 
  H17      1.0000 0.29368  0.13837  0.03445  Biso   1.000  H 
  H18      1.0000 0.37299  0.19497  0.29888  Biso   1.000  H 
