data_image0
_cell_length_a       25.9151
_cell_length_b       25.9151
_cell_length_c       6.27921
_cell_angle_alpha    90
_cell_angle_beta     90
_cell_angle_gamma    120

_symmetry_space_group_name_H-M    "P 1"
_symmetry_int_tables_number       1

loop_
  _symmetry_equiv_pos_as_xyz
  'x, y, z'

loop_
  _atom_site_label
  _atom_site_occupancy
  _atom_site_fract_x
  _atom_site_fract_y
  _atom_site_fract_z
  _atom_site_thermal_displace_type
  _atom_site_B_iso_or_equiv
  _atom_site_type_symbol
  Cu1      1.0000 0.29541  0.28014  0.34210  Biso   1.000  Cu
  O1       1.0000 0.25200  0.30760  0.16990  Biso   1.000  O 
  Cu2      1.0000 0.31806  0.37126  0.00877  Biso   1.000  Cu
  O2       1.0000 0.36377  0.38533  0.26753  Biso   1.000  O 
  C1       1.0000 0.41937  0.40883  0.29913  Biso   1.000  C 
  O3       1.0000 0.44157  0.40023  0.46383  Biso   1.000  O 
  Cu3      1.0000 0.38653  0.34860  0.67543  Biso   1.000  Cu
  O4       1.0000 0.35907  0.27773  0.50323  Biso   1.000  O 
  C2       1.0000 0.34727  0.22343  0.58833  Biso   1.000  C 
  C3       1.0000 0.35427  0.18193  0.45703  Biso   1.000  C 
  C4       1.0000 0.33937  0.12643  0.53163  Biso   1.000  C 
  C5       1.0000 0.31940  0.10990  0.74500  Biso   1.000  C 
  O5       1.0000 0.30760  0.05560  0.83010  Biso   1.000  O 
  Cu4      1.0000 0.28014  0.98473  0.65790  Biso   1.000  Cu
  O6       1.0000 0.22510  0.93310  0.86950  Biso   1.000  O 
  C6       1.0000 0.24730  0.92450  0.03420  Biso   1.000  C 
  O7       1.0000 0.30290  0.94800  0.06580  Biso   1.000  O 
  Cu5      1.0000 0.34860  0.96208  0.32457  Biso   1.000  Cu
  O8       1.0000 0.27773  0.91867  0.49677  Biso   1.000  O 
  C7       1.0000 0.22343  0.87617  0.41167  Biso   1.000  C 
  C8       1.0000 0.18193  0.82767  0.54297  Biso   1.000  C 
  C9       1.0000 0.12643  0.78707  0.46837  Biso   1.000  C 
  C10      1.0000 0.10990  0.79050  0.25500  Biso   1.000  C 
  O9       1.0000 0.05560  0.74800  0.16990  Biso   1.000  O 
  Cu6      1.0000 0.98473  0.70459  0.34210  Biso   1.000  Cu
  Cu7      1.0000 0.96208  0.61347  0.67543  Biso   1.000  Cu
  O10      1.0000 0.95867  0.55843  0.46383  Biso   1.000  O 
  C11      1.0000 0.98947  0.58063  0.29913  Biso   1.000  C 
  O11      1.0000 0.02157  0.63623  0.26753  Biso   1.000  O 
  Cu8      1.0000 0.05319  0.68194  0.00877  Biso   1.000  Cu
  O12      1.0000 0.02573  0.61107  0.83657  Biso   1.000  O 
  C12      1.0000 0.01393  0.55677  0.92167  Biso   1.000  C 
  C13      1.0000 0.99397  0.54023  0.13503  Biso   1.000  C 
  C14      1.0000 0.97907  0.48473  0.20963  Biso   1.000  C 
  C15      1.0000 0.98607  0.44323  0.07833  Biso   1.000  C 
  O13      1.0000 0.97427  0.38893  0.16343  Biso   1.000  O 
  Cu9      1.0000 0.03792  0.38653  0.32457  Biso   1.000  Cu
  O14      1.0000 0.08133  0.35907  0.49677  Biso   1.000  O 
  Cu10     1.0000 0.01527  0.29541  0.65790  Biso   1.000  Cu
  O15      1.0000 0.06690  0.29200  0.86950  Biso   1.000  O 
  C16      1.0000 0.07550  0.32280  0.03420  Biso   1.000  C 
  O16      1.0000 0.05200  0.35490  0.06580  Biso   1.000  O 
  Cu11     1.0000 0.94681  0.31806  0.99123  Biso   1.000  Cu
  O17      1.0000 0.97843  0.36377  0.73247  Biso   1.000  O 
  C17      1.0000 0.01053  0.41937  0.70087  Biso   1.000  C 
  O18      1.0000 0.04133  0.44157  0.53617  Biso   1.000  O 
  C18      1.0000 0.00603  0.45977  0.86497  Biso   1.000  C 
  C19      1.0000 0.02093  0.51527  0.79037  Biso   1.000  C 
  H1       1.0000 0.03832  0.52805  0.62933  Biso   1.000  H 
  O19      1.0000 0.94440  0.25200  0.83010  Biso   1.000  O 
  C20      1.0000 0.89010  0.20950  0.74500  Biso   1.000  C 
  C21      1.0000 0.84860  0.16100  0.87630  Biso   1.000  C 
  C22      1.0000 0.79310  0.12040  0.80170  Biso   1.000  C 
  C23      1.0000 0.75270  0.07550  0.96580  Biso   1.000  C 
  O20      1.0000 0.69710  0.05200  0.93420  Biso   1.000  O 
  Cu12     1.0000 0.62874  0.94681  0.00877  Biso   1.000  Cu
  O21      1.0000 0.61467  0.97843  0.26753  Biso   1.000  O 
  C24      1.0000 0.59117  0.01053  0.29913  Biso   1.000  C 
  O22      1.0000 0.59977  0.04133  0.46383  Biso   1.000  O 
  Cu13     1.0000 0.65140  0.03792  0.67543  Biso   1.000  Cu
  O23      1.0000 0.72227  0.08133  0.50323  Biso   1.000  O 
  Cu14     1.0000 0.71986  0.01527  0.34210  Biso   1.000  Cu
  O24      1.0000 0.77490  0.06690  0.13050  Biso   1.000  O 
  O25      1.0000 0.69240  0.94440  0.16990  Biso   1.000  O 
  C25      1.0000 0.68060  0.89010  0.25500  Biso   1.000  C 
  C26      1.0000 0.68760  0.84860  0.12370  Biso   1.000  C 
  C27      1.0000 0.67270  0.79310  0.19830  Biso   1.000  C 
  C28      1.0000 0.67720  0.75270  0.03420  Biso   1.000  C 
  O26      1.0000 0.64510  0.69710  0.06580  Biso   1.000  O 
  Cu15     1.0000 0.61347  0.65140  0.32457  Biso   1.000  Cu
  O27      1.0000 0.61107  0.58533  0.16343  Biso   1.000  O 
  Cu16     1.0000 0.68194  0.62874  0.99123  Biso   1.000  Cu
  O28      1.0000 0.63623  0.61467  0.73247  Biso   1.000  O 
  Cu17     1.0000 0.70459  0.71986  0.65790  Biso   1.000  Cu
  O29      1.0000 0.70800  0.77490  0.86950  Biso   1.000  O 
  O30      1.0000 0.64093  0.72227  0.49677  Biso   1.000  O 
  C29      1.0000 0.65273  0.77657  0.41167  Biso   1.000  C 
  C30      1.0000 0.64573  0.81807  0.54297  Biso   1.000  C 
  H2       1.0000 0.62835  0.80528  0.70400  Biso   1.000  H 
  C31      1.0000 0.66063  0.87357  0.46837  Biso   1.000  C 
  C32      1.0000 0.65613  0.91397  0.63247  Biso   1.000  C 
  O31      1.0000 0.62533  0.89177  0.79717  Biso   1.000  O 
  O32      1.0000 0.68823  0.96957  0.60087  Biso   1.000  O 
  O33      1.0000 0.71867  0.68823  0.39913  Biso   1.000  O 
  C33      1.0000 0.74217  0.65613  0.36753  Biso   1.000  C 
  O34      1.0000 0.73357  0.62533  0.20283  Biso   1.000  O 
  C34      1.0000 0.78707  0.66063  0.53163  Biso   1.000  C 
  C35      1.0000 0.79050  0.68060  0.74500  Biso   1.000  C 
  O35      1.0000 0.74800  0.69240  0.83010  Biso   1.000  O 
  C36      1.0000 0.83900  0.68760  0.87630  Biso   1.000  C 
  C37      1.0000 0.87960  0.67270  0.80170  Biso   1.000  C 
  C38      1.0000 0.87617  0.65273  0.58833  Biso   1.000  C 
  O36      1.0000 0.91867  0.64093  0.50323  Biso   1.000  O 
  C39      1.0000 0.82767  0.64573  0.45703  Biso   1.000  C 
  H3       1.0000 0.82307  0.62835  0.29600  Biso   1.000  H 
  C40      1.0000 0.92450  0.67720  0.96580  Biso   1.000  C 
  O37      1.0000 0.94800  0.64510  0.93420  Biso   1.000  O 
  O38      1.0000 0.93310  0.70800  0.13050  Biso   1.000  O 
  H4       1.0000 0.84359  0.70498  0.03734  Biso   1.000  H 
  C41      1.0000 0.58063  0.59117  0.70087  Biso   1.000  C 
  O39      1.0000 0.55843  0.59977  0.53617  Biso   1.000  O 
  C42      1.0000 0.54023  0.54627  0.86497  Biso   1.000  C 
  C43      1.0000 0.55677  0.54283  0.07833  Biso   1.000  C 
  C44      1.0000 0.51527  0.49433  0.20963  Biso   1.000  C 
  C45      1.0000 0.45977  0.45373  0.13503  Biso   1.000  C 
  C46      1.0000 0.44323  0.45717  0.92167  Biso   1.000  C 
  O40      1.0000 0.38893  0.41467  0.83657  Biso   1.000  O 
  C47      1.0000 0.48473  0.50567  0.79037  Biso   1.000  C 
  H5       1.0000 0.47195  0.51026  0.62933  Biso   1.000  H 
  H6       1.0000 0.52805  0.48974  0.37067  Biso   1.000  H 
  H7       1.0000 0.70498  0.86139  0.96266  Biso   1.000  H 
  C48      1.0000 0.77657  0.12383  0.58833  Biso   1.000  C 
  C49      1.0000 0.81807  0.17233  0.45703  Biso   1.000  C 
  H8       1.0000 0.80528  0.17693  0.29600  Biso   1.000  H 
  C50      1.0000 0.87357  0.21293  0.53163  Biso   1.000  C 
  C51      1.0000 0.91397  0.25783  0.36753  Biso   1.000  C 
  O41      1.0000 0.89177  0.26643  0.20283  Biso   1.000  O 
  O42      1.0000 0.96957  0.28133  0.39913  Biso   1.000  O 
  O43      1.0000 0.58533  0.97427  0.83657  Biso   1.000  O 
  C52      1.0000 0.54283  0.98607  0.92167  Biso   1.000  C 
  C53      1.0000 0.54627  0.00603  0.13503  Biso   1.000  C 
  C54      1.0000 0.50567  0.02093  0.20963  Biso   1.000  C 
  C55      1.0000 0.45717  0.01393  0.07833  Biso   1.000  C 
  O44      1.0000 0.41467  0.02573  0.16343  Biso   1.000  O 
  Cu18     1.0000 0.37126  0.05319  0.99123  Biso   1.000  Cu
  O45      1.0000 0.38533  0.02157  0.73247  Biso   1.000  O 
  C56      1.0000 0.40883  0.98947  0.70087  Biso   1.000  C 
  O46      1.0000 0.40023  0.95867  0.53617  Biso   1.000  O 
  C57      1.0000 0.45373  0.99397  0.86497  Biso   1.000  C 
  C58      1.0000 0.49433  0.97907  0.79037  Biso   1.000  C 
  H9       1.0000 0.48974  0.96168  0.62933  Biso   1.000  H 
  O47      1.0000 0.37467  0.10823  0.20283  Biso   1.000  O 
  C59      1.0000 0.34387  0.08603  0.36753  Biso   1.000  C 
  O48      1.0000 0.31177  0.03043  0.39913  Biso   1.000  O 
  H10      1.0000 0.51026  0.03832  0.37067  Biso   1.000  H 
  H11      1.0000 0.86139  0.15641  0.03734  Biso   1.000  H 
  C60      1.0000 0.12040  0.32730  0.19830  Biso   1.000  C 
  C61      1.0000 0.12383  0.34727  0.41167  Biso   1.000  C 
  C62      1.0000 0.17233  0.35427  0.54297  Biso   1.000  C 
  C63      1.0000 0.21293  0.33937  0.46837  Biso   1.000  C 
  C64      1.0000 0.20950  0.31940  0.25500  Biso   1.000  C 
  C65      1.0000 0.16100  0.31240  0.12370  Biso   1.000  C 
  H12      1.0000 0.15641  0.29502  0.96266  Biso   1.000  H 
  C66      1.0000 0.25783  0.34387  0.63247  Biso   1.000  C 
  O49      1.0000 0.28133  0.31177  0.60087  Biso   1.000  O 
  O50      1.0000 0.26643  0.37467  0.79717  Biso   1.000  O 
  H13      1.0000 0.17693  0.37165  0.70400  Biso   1.000  H 
  H14      1.0000 0.96168  0.47195  0.37067  Biso   1.000  H 
  O51      1.0000 0.10823  0.73357  0.79717  Biso   1.000  O 
  C67      1.0000 0.08603  0.74217  0.63247  Biso   1.000  C 
  O52      1.0000 0.03043  0.71867  0.60087  Biso   1.000  O 
  C68      1.0000 0.15140  0.83900  0.12370  Biso   1.000  C 
  C69      1.0000 0.20690  0.87960  0.19830  Biso   1.000  C 
  H15      1.0000 0.13861  0.84359  0.96266  Biso   1.000  H 
  H16      1.0000 0.19472  0.82307  0.70400  Biso   1.000  H 
  C70      1.0000 0.31240  0.15140  0.87630  Biso   1.000  C 
  C71      1.0000 0.32730  0.20690  0.80170  Biso   1.000  C 
  C72      1.0000 0.32280  0.24730  0.96580  Biso   1.000  C 
  O53      1.0000 0.35490  0.30290  0.93420  Biso   1.000  O 
  O54      1.0000 0.29200  0.22510  0.13050  Biso   1.000  O 
  H17      1.0000 0.29502  0.13861  0.03734  Biso   1.000  H 
  H18      1.0000 0.37165  0.19472  0.29600  Biso   1.000  H 
