data_image0
_cell_length_a       25.9202
_cell_length_b       25.9202
_cell_length_c       6.27192
_cell_angle_alpha    90
_cell_angle_beta     90
_cell_angle_gamma    120

_symmetry_space_group_name_H-M    "P 1"
_symmetry_int_tables_number       1

loop_
  _symmetry_equiv_pos_as_xyz
  'x, y, z'

loop_
  _atom_site_label
  _atom_site_occupancy
  _atom_site_fract_x
  _atom_site_fract_y
  _atom_site_fract_z
  _atom_site_thermal_displace_type
  _atom_site_B_iso_or_equiv
  _atom_site_type_symbol
  Cu1      1.0000 0.29518  0.27987  0.34260  Biso   1.000  Cu
  O1       1.0000 0.35967  0.27773  0.50463  Biso   1.000  O 
  Cu2      1.0000 0.38680  0.34864  0.67593  Biso   1.000  Cu
  O2       1.0000 0.35470  0.30270  0.93230  Biso   1.000  O 
  Cu3      1.0000 0.31802  0.37149  0.00927  Biso   1.000  Cu
  O3       1.0000 0.25140  0.30700  0.17130  Biso   1.000  O 
  C1       1.0000 0.20900  0.31890  0.25780  Biso   1.000  C 
  C2       1.0000 0.16080  0.31330  0.12410  Biso   1.000  C 
  C3       1.0000 0.11990  0.32630  0.19730  Biso   1.000  C 
  C4       1.0000 0.07800  0.32450  0.02910  Biso   1.000  C 
  O4       1.0000 0.05200  0.35470  0.06770  Biso   1.000  O 
  Cu4      1.0000 0.03815  0.38680  0.32407  Biso   1.000  Cu
  O5       1.0000 0.08193  0.35967  0.49537  Biso   1.000  O 
  Cu5      1.0000 0.01531  0.29518  0.65740  Biso   1.000  Cu
  O6       1.0000 0.06630  0.29190  0.87070  Biso   1.000  O 
  Cu6      1.0000 0.94654  0.31802  0.99073  Biso   1.000  Cu
  O7       1.0000 0.94440  0.25140  0.82870  Biso   1.000  O 
  C5       1.0000 0.89010  0.20900  0.74220  Biso   1.000  C 
  C6       1.0000 0.84750  0.16080  0.87590  Biso   1.000  C 
  C7       1.0000 0.79360  0.11990  0.80270  Biso   1.000  C 
  C8       1.0000 0.77657  0.12433  0.59113  Biso   1.000  C 
  O8       1.0000 0.72227  0.08193  0.50463  Biso   1.000  O 
  Cu7      1.0000 0.72013  0.01531  0.34260  Biso   1.000  Cu
  Cu8      1.0000 0.65136  0.03815  0.67593  Biso   1.000  Cu
  O9       1.0000 0.60037  0.04143  0.46263  Biso   1.000  O 
  C9       1.0000 0.58867  0.00883  0.30423  Biso   1.000  C 
  C10      1.0000 0.54677  0.00703  0.13603  Biso   1.000  C 
  C11      1.0000 0.50587  0.02003  0.20923  Biso   1.000  C 
  C12      1.0000 0.45767  0.01443  0.07553  Biso   1.000  C 
  O10      1.0000 0.41527  0.02633  0.16203  Biso   1.000  O 
  Cu9      1.0000 0.34864  0.96185  0.32407  Biso   1.000  Cu
  O11      1.0000 0.30270  0.94800  0.06770  Biso   1.000  O 
  Cu10     1.0000 0.37149  0.05346  0.99073  Biso   1.000  Cu
  O12      1.0000 0.30700  0.05560  0.82870  Biso   1.000  O 
  Cu11     1.0000 0.27987  0.98469  0.65740  Biso   1.000  Cu
  O13      1.0000 0.22560  0.93370  0.87070  Biso   1.000  O 
  C13      1.0000 0.24650  0.92200  0.02910  Biso   1.000  C 
  C14      1.0000 0.20640  0.88010  0.19730  Biso   1.000  C 
  C15      1.0000 0.22343  0.87567  0.40887  Biso   1.000  C 
  O14      1.0000 0.27773  0.91807  0.49537  Biso   1.000  O 
  C16      1.0000 0.18083  0.82747  0.54257  Biso   1.000  C 
  C17      1.0000 0.12693  0.78657  0.46937  Biso   1.000  C 
  C18      1.0000 0.10990  0.79100  0.25780  Biso   1.000  C 
  O15      1.0000 0.05560  0.74860  0.17130  Biso   1.000  O 
  Cu12     1.0000 0.98469  0.70482  0.34260  Biso   1.000  Cu
  O16      1.0000 0.91807  0.64033  0.50463  Biso   1.000  O 
  Cu13     1.0000 0.96185  0.61320  0.67593  Biso   1.000  Cu
  O17      1.0000 0.94800  0.64530  0.93230  Biso   1.000  O 
  Cu14     1.0000 0.05346  0.68198  0.00927  Biso   1.000  Cu
  O18      1.0000 0.02137  0.63603  0.26563  Biso   1.000  O 
  C19      1.0000 0.99117  0.57983  0.30423  Biso   1.000  C 
  O19      1.0000 0.95857  0.55893  0.46263  Biso   1.000  O 
  C20      1.0000 0.99297  0.53973  0.13603  Biso   1.000  C 
  C21      1.0000 0.97997  0.48583  0.20923  Biso   1.000  C 
  C22      1.0000 0.98557  0.44323  0.07553  Biso   1.000  C 
  O20      1.0000 0.97367  0.38893  0.16203  Biso   1.000  O 
  C23      1.0000 0.00703  0.46027  0.86397  Biso   1.000  C 
  C24      1.0000 0.00883  0.42017  0.69577  Biso   1.000  C 
  O21      1.0000 0.04143  0.44107  0.53737  Biso   1.000  O 
  O22      1.0000 0.97863  0.36397  0.73437  Biso   1.000  O 
  C25      1.0000 0.02003  0.51417  0.79077  Biso   1.000  C 
  C26      1.0000 0.01443  0.55677  0.92447  Biso   1.000  C 
  O23      1.0000 0.02633  0.61107  0.83797  Biso   1.000  O 
  H1       1.0000 0.03516  0.52618  0.62682  Biso   1.000  H 
  H2       1.0000 0.96484  0.47382  0.37318  Biso   1.000  H 
  O24      1.0000 0.10773  0.73297  0.79597  Biso   1.000  O 
  C27      1.0000 0.08683  0.74467  0.63757  Biso   1.000  C 
  O25      1.0000 0.03063  0.71867  0.59897  Biso   1.000  O 
  C28      1.0000 0.92200  0.67550  0.97090  Biso   1.000  C 
  O26      1.0000 0.93370  0.70810  0.12930  Biso   1.000  O 
  C29      1.0000 0.88010  0.67370  0.80270  Biso   1.000  C 
  C30      1.0000 0.87567  0.65223  0.59113  Biso   1.000  C 
  C31      1.0000 0.82747  0.64663  0.45743  Biso   1.000  C 
  H3       1.0000 0.82435  0.63150  0.29349  Biso   1.000  H 
  C32      1.0000 0.78657  0.65963  0.53063  Biso   1.000  C 
  C33      1.0000 0.74467  0.65783  0.36243  Biso   1.000  C 
  O27      1.0000 0.73297  0.62523  0.20403  Biso   1.000  O 
  Cu15     1.0000 0.68198  0.62851  0.99073  Biso   1.000  Cu
  O28      1.0000 0.63603  0.61467  0.73437  Biso   1.000  O 
  Cu16     1.0000 0.70482  0.72013  0.65740  Biso   1.000  Cu
  O29      1.0000 0.74860  0.69300  0.82870  Biso   1.000  O 
  C34      1.0000 0.79100  0.68110  0.74220  Biso   1.000  C 
  C35      1.0000 0.83920  0.68670  0.87590  Biso   1.000  C 
  H4       1.0000 0.84232  0.70183  0.03984  Biso   1.000  H 
  Cu17     1.0000 0.61320  0.65136  0.32407  Biso   1.000  Cu
  O30      1.0000 0.55893  0.60037  0.53737  Biso   1.000  O 
  C36      1.0000 0.57983  0.58867  0.69577  Biso   1.000  C 
  C37      1.0000 0.53973  0.54677  0.86397  Biso   1.000  C 
  C38      1.0000 0.55677  0.54233  0.07553  Biso   1.000  C 
  O31      1.0000 0.61107  0.58473  0.16203  Biso   1.000  O 
  C39      1.0000 0.51417  0.49413  0.20923  Biso   1.000  C 
  C40      1.0000 0.46027  0.45323  0.13603  Biso   1.000  C 
  C41      1.0000 0.42017  0.41133  0.30423  Biso   1.000  C 
  O32      1.0000 0.44107  0.39963  0.46263  Biso   1.000  O 
  O33      1.0000 0.36397  0.38533  0.26563  Biso   1.000  O 
  C42      1.0000 0.44323  0.45767  0.92447  Biso   1.000  C 
  O34      1.0000 0.38893  0.41527  0.83797  Biso   1.000  O 
  C43      1.0000 0.48583  0.50587  0.79077  Biso   1.000  C 
  H5       1.0000 0.47382  0.50899  0.62682  Biso   1.000  H 
  H6       1.0000 0.52618  0.49101  0.37318  Biso   1.000  H 
  O35      1.0000 0.71867  0.68803  0.40103  Biso   1.000  O 
  O36      1.0000 0.64530  0.69730  0.06770  Biso   1.000  O 
  C44      1.0000 0.67550  0.75350  0.02910  Biso   1.000  C 
  C45      1.0000 0.67370  0.79360  0.19730  Biso   1.000  C 
  C46      1.0000 0.65223  0.77657  0.40887  Biso   1.000  C 
  O37      1.0000 0.64033  0.72227  0.49537  Biso   1.000  O 
  C47      1.0000 0.64663  0.81917  0.54257  Biso   1.000  C 
  H7       1.0000 0.63150  0.80716  0.70651  Biso   1.000  H 
  C48      1.0000 0.65963  0.87307  0.46937  Biso   1.000  C 
  C49      1.0000 0.65783  0.91317  0.63757  Biso   1.000  C 
  O38      1.0000 0.62523  0.89227  0.79597  Biso   1.000  O 
  Cu18     1.0000 0.62851  0.94654  0.00927  Biso   1.000  Cu
  O39      1.0000 0.61467  0.97863  0.26563  Biso   1.000  O 
  O40      1.0000 0.69300  0.94440  0.17130  Biso   1.000  O 
  C50      1.0000 0.68110  0.89010  0.25780  Biso   1.000  C 
  C51      1.0000 0.68670  0.84750  0.12410  Biso   1.000  C 
  H8       1.0000 0.70183  0.85951  0.96016  Biso   1.000  H 
  O41      1.0000 0.58473  0.97367  0.83797  Biso   1.000  O 
  C52      1.0000 0.54233  0.98557  0.92447  Biso   1.000  C 
  C53      1.0000 0.49413  0.97997  0.79077  Biso   1.000  C 
  C54      1.0000 0.45323  0.99297  0.86397  Biso   1.000  C 
  C55      1.0000 0.41133  0.99117  0.69577  Biso   1.000  C 
  O42      1.0000 0.39963  0.95857  0.53737  Biso   1.000  O 
  O43      1.0000 0.38533  0.02137  0.73437  Biso   1.000  O 
  H9       1.0000 0.49101  0.96484  0.62682  Biso   1.000  H 
  O44      1.0000 0.69730  0.05200  0.93230  Biso   1.000  O 
  C56      1.0000 0.75350  0.07800  0.97090  Biso   1.000  C 
  O45      1.0000 0.77440  0.06630  0.12930  Biso   1.000  O 
  O46      1.0000 0.68803  0.96937  0.59897  Biso   1.000  O 
  O47      1.0000 0.70810  0.77440  0.87070  Biso   1.000  O 
  C57      1.0000 0.15250  0.83920  0.12410  Biso   1.000  C 
  H10      1.0000 0.14049  0.84232  0.96016  Biso   1.000  H 
  H11      1.0000 0.19284  0.82435  0.70651  Biso   1.000  H 
  O48      1.0000 0.31197  0.03063  0.40103  Biso   1.000  O 
  C58      1.0000 0.34217  0.08683  0.36243  Biso   1.000  C 
  O49      1.0000 0.37477  0.10773  0.20403  Biso   1.000  O 
  C59      1.0000 0.34037  0.12693  0.53063  Biso   1.000  C 
  C60      1.0000 0.31890  0.10990  0.74220  Biso   1.000  C 
  C61      1.0000 0.31330  0.15250  0.87590  Biso   1.000  C 
  C62      1.0000 0.32630  0.20640  0.80270  Biso   1.000  C 
  C63      1.0000 0.34777  0.22343  0.59113  Biso   1.000  C 
  C64      1.0000 0.35337  0.18083  0.45743  Biso   1.000  C 
  H12      1.0000 0.36850  0.19284  0.29349  Biso   1.000  H 
  C65      1.0000 0.32450  0.24650  0.97090  Biso   1.000  C 
  O50      1.0000 0.29190  0.22560  0.12930  Biso   1.000  O 
  H13      1.0000 0.29817  0.14049  0.03984  Biso   1.000  H 
  H14      1.0000 0.50899  0.03516  0.37318  Biso   1.000  H 
  C66      1.0000 0.81917  0.17253  0.45743  Biso   1.000  C 
  H15      1.0000 0.80716  0.17565  0.29349  Biso   1.000  H 
  C67      1.0000 0.87307  0.21343  0.53063  Biso   1.000  C 
  C68      1.0000 0.91317  0.25533  0.36243  Biso   1.000  C 
  O51      1.0000 0.89227  0.26703  0.20403  Biso   1.000  O 
  O52      1.0000 0.96937  0.28133  0.40103  Biso   1.000  O 
  H16      1.0000 0.85951  0.15768  0.03984  Biso   1.000  H 
  C69      1.0000 0.12433  0.34777  0.40887  Biso   1.000  C 
  C70      1.0000 0.17253  0.35337  0.54257  Biso   1.000  C 
  C71      1.0000 0.21343  0.34037  0.46937  Biso   1.000  C 
  C72      1.0000 0.25533  0.34217  0.63757  Biso   1.000  C 
  O53      1.0000 0.26703  0.37477  0.79597  Biso   1.000  O 
  O54      1.0000 0.28133  0.31197  0.59897  Biso   1.000  O 
  H17      1.0000 0.17565  0.36850  0.70651  Biso   1.000  H 
  H18      1.0000 0.15768  0.29817  0.96016  Biso   1.000  H 
