data_image0
_cell_length_a       25.9161
_cell_length_b       25.9161
_cell_length_c       6.27398
_cell_angle_alpha    90
_cell_angle_beta     90
_cell_angle_gamma    120

_symmetry_space_group_name_H-M    "P 1"
_symmetry_int_tables_number       1

loop_
  _symmetry_equiv_pos_as_xyz
  'x, y, z'

loop_
  _atom_site_label
  _atom_site_occupancy
  _atom_site_fract_x
  _atom_site_fract_y
  _atom_site_fract_z
  _atom_site_thermal_displace_type
  _atom_site_B_iso_or_equiv
  _atom_site_type_symbol
  Cu1      1.0000 0.29531  0.27999  0.34250  Biso   1.000  Cu
  O1       1.0000 0.29220  0.22570  0.12950  Biso   1.000  O 
  C1       1.0000 0.32360  0.24630  0.96840  Biso   1.000  C 
  O2       1.0000 0.35460  0.30270  0.93330  Biso   1.000  O 
  Cu2      1.0000 0.38668  0.34865  0.67583  Biso   1.000  Cu
  O3       1.0000 0.35957  0.27763  0.50443  Biso   1.000  O 
  C2       1.0000 0.34747  0.22353  0.58733  Biso   1.000  C 
  C3       1.0000 0.35437  0.18173  0.45843  Biso   1.000  C 
  C4       1.0000 0.33967  0.12653  0.53143  Biso   1.000  C 
  C5       1.0000 0.31920  0.10980  0.74600  Biso   1.000  C 
  O4       1.0000 0.30710  0.05570  0.82890  Biso   1.000  O 
  Cu3      1.0000 0.27999  0.98468  0.65750  Biso   1.000  Cu
  O5       1.0000 0.22570  0.93350  0.87050  Biso   1.000  O 
  C6       1.0000 0.24630  0.92270  0.03160  Biso   1.000  C 
  O6       1.0000 0.30270  0.94810  0.06670  Biso   1.000  O 
  Cu4      1.0000 0.37136  0.05334  0.99083  Biso   1.000  Cu
  O7       1.0000 0.38523  0.02127  0.73337  Biso   1.000  O 
  C7       1.0000 0.41063  0.99027  0.69827  Biso   1.000  C 
  O8       1.0000 0.39983  0.95887  0.53717  Biso   1.000  O 
  Cu5      1.0000 0.34865  0.96198  0.32417  Biso   1.000  Cu
  O9       1.0000 0.27763  0.91807  0.49557  Biso   1.000  O 
  C8       1.0000 0.22353  0.87607  0.41267  Biso   1.000  C 
  C9       1.0000 0.18173  0.82737  0.54157  Biso   1.000  C 
  C10      1.0000 0.12653  0.78687  0.46857  Biso   1.000  C 
  C11      1.0000 0.10980  0.79060  0.25400  Biso   1.000  C 
  O10      1.0000 0.05570  0.74860  0.17110  Biso   1.000  O 
  Cu6      1.0000 0.98468  0.70469  0.34250  Biso   1.000  Cu
  O11      1.0000 0.93350  0.70780  0.12950  Biso   1.000  O 
  C12      1.0000 0.92270  0.67640  0.96840  Biso   1.000  C 
  O12      1.0000 0.94810  0.64540  0.93330  Biso   1.000  O 
  Cu7      1.0000 0.96198  0.61332  0.67583  Biso   1.000  Cu
  O13      1.0000 0.95887  0.55903  0.46283  Biso   1.000  O 
  C13      1.0000 0.99027  0.57963  0.30173  Biso   1.000  C 
  C14      1.0000 0.99367  0.54013  0.13523  Biso   1.000  C 
  C15      1.0000 0.01413  0.55687  0.92067  Biso   1.000  C 
  O14      1.0000 0.02623  0.61097  0.83777  Biso   1.000  O 
  Cu8      1.0000 0.05334  0.68199  0.00917  Biso   1.000  Cu
  O15      1.0000 0.02127  0.63603  0.26663  Biso   1.000  O 
  O16      1.0000 0.10763  0.73317  0.79617  Biso   1.000  O 
  C16      1.0000 0.08703  0.74397  0.63507  Biso   1.000  C 
  O17      1.0000 0.03063  0.71857  0.59997  Biso   1.000  O 
  C17      1.0000 0.02103  0.51507  0.79177  Biso   1.000  C 
  H1       1.0000 0.03854  0.52779  0.63072  Biso   1.000  H 
  C18      1.0000 0.00633  0.45987  0.86477  Biso   1.000  C 
  C19      1.0000 0.00973  0.42037  0.69827  Biso   1.000  C 
  O18      1.0000 0.04113  0.44097  0.53717  Biso   1.000  O 
  Cu9      1.0000 0.03802  0.38668  0.32417  Biso   1.000  Cu
  O19      1.0000 0.05190  0.35460  0.06670  Biso   1.000  O 
  Cu10     1.0000 0.94666  0.31801  0.99083  Biso   1.000  Cu
  O20      1.0000 0.97873  0.36397  0.73337  Biso   1.000  O 
  Cu11     1.0000 0.01532  0.29531  0.65750  Biso   1.000  Cu
  O21      1.0000 0.08193  0.35957  0.49557  Biso   1.000  O 
  C20      1.0000 0.12393  0.34747  0.41267  Biso   1.000  C 
  C21      1.0000 0.17263  0.35437  0.54157  Biso   1.000  C 
  H2       1.0000 0.17742  0.37187  0.70261  Biso   1.000  H 
  C22      1.0000 0.21313  0.33967  0.46857  Biso   1.000  C 
  C23      1.0000 0.20940  0.31920  0.25400  Biso   1.000  C 
  O22      1.0000 0.25140  0.30710  0.17110  Biso   1.000  O 
  Cu12     1.0000 0.31801  0.37136  0.00917  Biso   1.000  Cu
  O23      1.0000 0.36397  0.38523  0.26663  Biso   1.000  O 
  C24      1.0000 0.42037  0.41063  0.30173  Biso   1.000  C 
  O24      1.0000 0.44097  0.39983  0.46283  Biso   1.000  O 
  C25      1.0000 0.45987  0.45353  0.13523  Biso   1.000  C 
  C26      1.0000 0.44313  0.45727  0.92067  Biso   1.000  C 
  O25      1.0000 0.38903  0.41527  0.83777  Biso   1.000  O 
  C27      1.0000 0.48493  0.50597  0.79177  Biso   1.000  C 
  H3       1.0000 0.47221  0.51075  0.63072  Biso   1.000  H 
  C28      1.0000 0.54013  0.54647  0.86477  Biso   1.000  C 
  C29      1.0000 0.57963  0.58937  0.69827  Biso   1.000  C 
  O26      1.0000 0.55903  0.60017  0.53717  Biso   1.000  O 
  Cu13     1.0000 0.61332  0.65135  0.32417  Biso   1.000  Cu
  O27      1.0000 0.61097  0.58473  0.16223  Biso   1.000  O 
  Cu14     1.0000 0.68199  0.62864  0.99083  Biso   1.000  Cu
  O28      1.0000 0.63603  0.61477  0.73337  Biso   1.000  O 
  Cu15     1.0000 0.70469  0.72001  0.65750  Biso   1.000  Cu
  O29      1.0000 0.71857  0.68793  0.40003  Biso   1.000  O 
  C30      1.0000 0.74397  0.65693  0.36493  Biso   1.000  C 
  O30      1.0000 0.73317  0.62553  0.20383  Biso   1.000  O 
  C31      1.0000 0.78687  0.66033  0.53143  Biso   1.000  C 
  C32      1.0000 0.79060  0.68080  0.74600  Biso   1.000  C 
  O31      1.0000 0.74860  0.69290  0.82890  Biso   1.000  O 
  C33      1.0000 0.83930  0.68770  0.87490  Biso   1.000  C 
  C34      1.0000 0.87980  0.67300  0.80190  Biso   1.000  C 
  C35      1.0000 0.87607  0.65253  0.58733  Biso   1.000  C 
  O32      1.0000 0.91807  0.64043  0.50443  Biso   1.000  O 
  C36      1.0000 0.82737  0.64563  0.45843  Biso   1.000  C 
  H4       1.0000 0.82258  0.62813  0.29739  Biso   1.000  H 
  H5       1.0000 0.84408  0.70521  0.03595  Biso   1.000  H 
  O33      1.0000 0.64043  0.72237  0.49557  Biso   1.000  O 
  C37      1.0000 0.65253  0.77647  0.41267  Biso   1.000  C 
  C38      1.0000 0.64563  0.81827  0.54157  Biso   1.000  C 
  H6       1.0000 0.62813  0.80554  0.70261  Biso   1.000  H 
  C39      1.0000 0.66033  0.87347  0.46857  Biso   1.000  C 
  C40      1.0000 0.68080  0.89020  0.25400  Biso   1.000  C 
  O34      1.0000 0.69290  0.94430  0.17110  Biso   1.000  O 
  Cu16     1.0000 0.72001  0.01532  0.34250  Biso   1.000  Cu
  Cu17     1.0000 0.65135  0.03802  0.67583  Biso   1.000  Cu
  O35      1.0000 0.60017  0.04113  0.46283  Biso   1.000  O 
  C41      1.0000 0.58937  0.00973  0.30173  Biso   1.000  C 
  O36      1.0000 0.61477  0.97873  0.26663  Biso   1.000  O 
  Cu18     1.0000 0.62864  0.94666  0.00917  Biso   1.000  Cu
  O37      1.0000 0.69730  0.05190  0.93330  Biso   1.000  O 
  C42      1.0000 0.75370  0.07730  0.96840  Biso   1.000  C 
  C43      1.0000 0.79320  0.12020  0.80190  Biso   1.000  C 
  C44      1.0000 0.77647  0.12393  0.58733  Biso   1.000  C 
  O38      1.0000 0.72237  0.08193  0.50443  Biso   1.000  O 
  C45      1.0000 0.81827  0.17263  0.45843  Biso   1.000  C 
  H7       1.0000 0.80554  0.17742  0.29739  Biso   1.000  H 
  C46      1.0000 0.87347  0.21313  0.53143  Biso   1.000  C 
  C47      1.0000 0.91297  0.25603  0.36493  Biso   1.000  C 
  O39      1.0000 0.89237  0.26683  0.20383  Biso   1.000  O 
  O40      1.0000 0.96937  0.28143  0.40003  Biso   1.000  O 
  C48      1.0000 0.89020  0.20940  0.74600  Biso   1.000  C 
  O41      1.0000 0.94430  0.25140  0.82890  Biso   1.000  O 
  C49      1.0000 0.84840  0.16070  0.87490  Biso   1.000  C 
  H8       1.0000 0.86113  0.15592  0.03595  Biso   1.000  H 
  O42      1.0000 0.77430  0.06650  0.12950  Biso   1.000  O 
  O43      1.0000 0.58473  0.97377  0.83777  Biso   1.000  O 
  C50      1.0000 0.54273  0.98587  0.92067  Biso   1.000  C 
  C51      1.0000 0.49403  0.97897  0.79177  Biso   1.000  C 
  C52      1.0000 0.45353  0.99367  0.86477  Biso   1.000  C 
  C53      1.0000 0.45727  0.01413  0.07933  Biso   1.000  C 
  O44      1.0000 0.41527  0.02623  0.16223  Biso   1.000  O 
  C54      1.0000 0.50597  0.02103  0.20823  Biso   1.000  C 
  H9       1.0000 0.51075  0.03854  0.36928  Biso   1.000  H 
  C55      1.0000 0.54647  0.00633  0.13523  Biso   1.000  C 
  H10      1.0000 0.48925  0.96146  0.63072  Biso   1.000  H 
  O45      1.0000 0.62553  0.89237  0.79617  Biso   1.000  O 
  C56      1.0000 0.65693  0.91297  0.63507  Biso   1.000  C 
  O46      1.0000 0.68793  0.96937  0.59997  Biso   1.000  O 
  C57      1.0000 0.68770  0.84840  0.12510  Biso   1.000  C 
  C58      1.0000 0.67300  0.79320  0.19810  Biso   1.000  C 
  C59      1.0000 0.67640  0.75370  0.03160  Biso   1.000  C 
  O47      1.0000 0.64540  0.69730  0.06670  Biso   1.000  O 
  O48      1.0000 0.70780  0.77430  0.87050  Biso   1.000  O 
  H11      1.0000 0.70521  0.86113  0.96405  Biso   1.000  H 
  C60      1.0000 0.55687  0.54273  0.07933  Biso   1.000  C 
  C61      1.0000 0.51507  0.49403  0.20823  Biso   1.000  C 
  H12      1.0000 0.52779  0.48925  0.36928  Biso   1.000  H 
  O49      1.0000 0.26683  0.37447  0.79617  Biso   1.000  O 
  C62      1.0000 0.25603  0.34307  0.63507  Biso   1.000  C 
  O50      1.0000 0.28143  0.31207  0.59997  Biso   1.000  O 
  C63      1.0000 0.16070  0.31230  0.12510  Biso   1.000  C 
  C64      1.0000 0.12020  0.32700  0.19810  Biso   1.000  C 
  C65      1.0000 0.07730  0.32360  0.03160  Biso   1.000  C 
  O51      1.0000 0.06650  0.29220  0.87050  Biso   1.000  O 
  H13      1.0000 0.15592  0.29479  0.96405  Biso   1.000  H 
  O52      1.0000 0.97377  0.38903  0.16223  Biso   1.000  O 
  C66      1.0000 0.98587  0.44313  0.07933  Biso   1.000  C 
  C67      1.0000 0.97897  0.48493  0.20823  Biso   1.000  C 
  H14      1.0000 0.96146  0.47221  0.36928  Biso   1.000  H 
  C68      1.0000 0.15160  0.83930  0.12510  Biso   1.000  C 
  C69      1.0000 0.20680  0.87980  0.19810  Biso   1.000  C 
  H15      1.0000 0.13887  0.84408  0.96405  Biso   1.000  H 
  H16      1.0000 0.19446  0.82258  0.70261  Biso   1.000  H 
  O53      1.0000 0.31207  0.03063  0.40003  Biso   1.000  O 
  C70      1.0000 0.34307  0.08703  0.36493  Biso   1.000  C 
  O54      1.0000 0.37447  0.10763  0.20383  Biso   1.000  O 
  C71      1.0000 0.31230  0.15160  0.87490  Biso   1.000  C 
  C72      1.0000 0.32700  0.20680  0.80190  Biso   1.000  C 
  H17      1.0000 0.29479  0.13887  0.03595  Biso   1.000  H 
  H18      1.0000 0.37187  0.19446  0.29739  Biso   1.000  H 
