data_image0
_cell_length_a       25.919
_cell_length_b       25.919
_cell_length_c       6.27234
_cell_angle_alpha    90
_cell_angle_beta     90
_cell_angle_gamma    120

_symmetry_space_group_name_H-M    "P 1"
_symmetry_int_tables_number       1

loop_
  _symmetry_equiv_pos_as_xyz
  'x, y, z'

loop_
  _atom_site_label
  _atom_site_occupancy
  _atom_site_fract_x
  _atom_site_fract_y
  _atom_site_fract_z
  _atom_site_thermal_displace_type
  _atom_site_B_iso_or_equiv
  _atom_site_type_symbol
  Cu1      1.0000 0.29521  0.27991  0.34260  Biso   1.000  Cu
  O1       1.0000 0.29180  0.22540  0.12990  Biso   1.000  O 
  C1       1.0000 0.32450  0.24680  0.97060  Biso   1.000  C 
  O2       1.0000 0.35470  0.30270  0.93170  Biso   1.000  O 
  Cu2      1.0000 0.38676  0.34863  0.67593  Biso   1.000  Cu
  O3       1.0000 0.35947  0.27773  0.50393  Biso   1.000  O 
  C2       1.0000 0.34747  0.22333  0.59053  Biso   1.000  C 
  C3       1.0000 0.35347  0.18103  0.45763  Biso   1.000  C 
  C4       1.0000 0.34037  0.12713  0.53073  Biso   1.000  C 
  C5       1.0000 0.31920  0.11000  0.74280  Biso   1.000  C 
  O4       1.0000 0.30720  0.05560  0.82940  Biso   1.000  O 
  Cu3      1.0000 0.27991  0.98470  0.65740  Biso   1.000  Cu
  O5       1.0000 0.22540  0.93360  0.87010  Biso   1.000  O 
  C6       1.0000 0.24680  0.92230  0.02940  Biso   1.000  C 
  O6       1.0000 0.30270  0.94800  0.06830  Biso   1.000  O 
  Cu4      1.0000 0.37146  0.05342  0.99073  Biso   1.000  Cu
  O7       1.0000 0.38533  0.02137  0.73497  Biso   1.000  O 
  C7       1.0000 0.41103  0.99117  0.69607  Biso   1.000  C 
  O8       1.0000 0.39973  0.95847  0.53677  Biso   1.000  O 
  Cu5      1.0000 0.34863  0.96188  0.32407  Biso   1.000  Cu
  O9       1.0000 0.27773  0.91827  0.49607  Biso   1.000  O 
  C8       1.0000 0.22333  0.87587  0.40947  Biso   1.000  C 
  C9       1.0000 0.18103  0.82757  0.54237  Biso   1.000  C 
  C10      1.0000 0.12713  0.78677  0.46927  Biso   1.000  C 
  C11      1.0000 0.11000  0.79080  0.25720  Biso   1.000  C 
  O10      1.0000 0.05560  0.74840  0.17060  Biso   1.000  O 
  Cu6      1.0000 0.98470  0.70479  0.34260  Biso   1.000  Cu
  O11      1.0000 0.91827  0.64053  0.50393  Biso   1.000  O 
  Cu7      1.0000 0.96188  0.61324  0.67593  Biso   1.000  Cu
  O12      1.0000 0.94800  0.64530  0.93170  Biso   1.000  O 
  Cu8      1.0000 0.05342  0.68197  0.00927  Biso   1.000  Cu
  O13      1.0000 0.02137  0.63603  0.26503  Biso   1.000  O 
  C12      1.0000 0.99117  0.58013  0.30393  Biso   1.000  C 
  O14      1.0000 0.95847  0.55873  0.46323  Biso   1.000  O 
  C13      1.0000 0.99297  0.53953  0.13593  Biso   1.000  C 
  C14      1.0000 0.01413  0.55667  0.92387  Biso   1.000  C 
  O15      1.0000 0.02613  0.61107  0.83727  Biso   1.000  O 
  C15      1.0000 0.02013  0.51437  0.79097  Biso   1.000  C 
  C16      1.0000 0.00703  0.46047  0.86407  Biso   1.000  C 
  C17      1.0000 0.00883  0.41987  0.69607  Biso   1.000  C 
  O16      1.0000 0.04153  0.44127  0.53677  Biso   1.000  O 
  Cu9      1.0000 0.03812  0.38676  0.32407  Biso   1.000  Cu
  O17      1.0000 0.05200  0.35470  0.06830  Biso   1.000  O 
  Cu10     1.0000 0.94658  0.31803  0.99073  Biso   1.000  Cu
  O18      1.0000 0.94440  0.25160  0.82940  Biso   1.000  O 
  Cu11     1.0000 0.01530  0.29521  0.65740  Biso   1.000  Cu
  O19      1.0000 0.08173  0.35947  0.49607  Biso   1.000  O 
  C18      1.0000 0.12413  0.34747  0.40947  Biso   1.000  C 
  C19      1.0000 0.17243  0.35347  0.54237  Biso   1.000  C 
  C20      1.0000 0.21323  0.34037  0.46927  Biso   1.000  C 
  C21      1.0000 0.20920  0.31920  0.25720  Biso   1.000  C 
  O20      1.0000 0.25160  0.30720  0.17060  Biso   1.000  O 
  Cu12     1.0000 0.31803  0.37146  0.00927  Biso   1.000  Cu
  O21      1.0000 0.36397  0.38533  0.26503  Biso   1.000  O 
  C22      1.0000 0.41987  0.41103  0.30393  Biso   1.000  C 
  O22      1.0000 0.44127  0.39973  0.46323  Biso   1.000  O 
  C23      1.0000 0.46047  0.45343  0.13593  Biso   1.000  C 
  C24      1.0000 0.44333  0.45747  0.92387  Biso   1.000  C 
  O23      1.0000 0.38893  0.41507  0.83727  Biso   1.000  O 
  C25      1.0000 0.48563  0.50577  0.79097  Biso   1.000  C 
  H1       1.0000 0.47346  0.50913  0.62750  Biso   1.000  H 
  C26      1.0000 0.53953  0.54657  0.86407  Biso   1.000  C 
  C27      1.0000 0.58013  0.58897  0.69607  Biso   1.000  C 
  O24      1.0000 0.55873  0.60027  0.53677  Biso   1.000  O 
  Cu13     1.0000 0.61324  0.65137  0.32407  Biso   1.000  Cu
  O25      1.0000 0.61107  0.58493  0.16273  Biso   1.000  O 
  Cu14     1.0000 0.68197  0.62854  0.99073  Biso   1.000  Cu
  O26      1.0000 0.63603  0.61467  0.73497  Biso   1.000  O 
  Cu15     1.0000 0.70479  0.72009  0.65740  Biso   1.000  Cu
  O27      1.0000 0.74840  0.69280  0.82940  Biso   1.000  O 
  C28      1.0000 0.79080  0.68080  0.74280  Biso   1.000  C 
  C29      1.0000 0.83910  0.68680  0.87570  Biso   1.000  C 
  C30      1.0000 0.87990  0.67370  0.80260  Biso   1.000  C 
  C31      1.0000 0.87587  0.65253  0.59053  Biso   1.000  C 
  C32      1.0000 0.82757  0.64653  0.45763  Biso   1.000  C 
  H2       1.0000 0.82420  0.63100  0.29416  Biso   1.000  H 
  C33      1.0000 0.78677  0.65963  0.53073  Biso   1.000  C 
  C34      1.0000 0.74437  0.65783  0.36273  Biso   1.000  C 
  O28      1.0000 0.73307  0.62513  0.20343  Biso   1.000  O 
  O29      1.0000 0.71867  0.68803  0.40163  Biso   1.000  O 
  C35      1.0000 0.92230  0.67550  0.97060  Biso   1.000  C 
  O30      1.0000 0.93360  0.70820  0.12990  Biso   1.000  O 
  H3       1.0000 0.84246  0.70233  0.03917  Biso   1.000  H 
  O31      1.0000 0.64053  0.72227  0.49607  Biso   1.000  O 
  C36      1.0000 0.65253  0.77667  0.40947  Biso   1.000  C 
  C37      1.0000 0.64653  0.81897  0.54237  Biso   1.000  C 
  H4       1.0000 0.63100  0.80680  0.70584  Biso   1.000  H 
  C38      1.0000 0.65963  0.87287  0.46927  Biso   1.000  C 
  C39      1.0000 0.68080  0.89000  0.25720  Biso   1.000  C 
  O32      1.0000 0.69280  0.94440  0.17060  Biso   1.000  O 
  Cu16     1.0000 0.72009  0.01530  0.34260  Biso   1.000  Cu
  Cu17     1.0000 0.65137  0.03812  0.67593  Biso   1.000  Cu
  O33      1.0000 0.60027  0.04153  0.46323  Biso   1.000  O 
  C40      1.0000 0.58897  0.00883  0.30393  Biso   1.000  C 
  O34      1.0000 0.61467  0.97863  0.26503  Biso   1.000  O 
  Cu18     1.0000 0.62854  0.94658  0.00927  Biso   1.000  Cu
  O35      1.0000 0.69730  0.05200  0.93170  Biso   1.000  O 
  C41      1.0000 0.75320  0.07770  0.97060  Biso   1.000  C 
  C42      1.0000 0.79380  0.12010  0.80260  Biso   1.000  C 
  C43      1.0000 0.77667  0.12413  0.59053  Biso   1.000  C 
  O36      1.0000 0.72227  0.08173  0.50393  Biso   1.000  O 
  C44      1.0000 0.81897  0.17243  0.45763  Biso   1.000  C 
  H5       1.0000 0.80680  0.17580  0.29416  Biso   1.000  H 
  C45      1.0000 0.87287  0.21323  0.53073  Biso   1.000  C 
  C46      1.0000 0.89000  0.20920  0.74280  Biso   1.000  C 
  C47      1.0000 0.84770  0.16090  0.87570  Biso   1.000  C 
  H6       1.0000 0.85987  0.15754  0.03917  Biso   1.000  H 
  C48      1.0000 0.91347  0.25563  0.36273  Biso   1.000  C 
  O37      1.0000 0.89207  0.26693  0.20343  Biso   1.000  O 
  O38      1.0000 0.96937  0.28133  0.40163  Biso   1.000  O 
  O39      1.0000 0.77460  0.06640  0.12990  Biso   1.000  O 
  O40      1.0000 0.58493  0.97387  0.83727  Biso   1.000  O 
  C49      1.0000 0.54253  0.98587  0.92387  Biso   1.000  C 
  C50      1.0000 0.49423  0.97987  0.79097  Biso   1.000  C 
  C51      1.0000 0.45343  0.99297  0.86407  Biso   1.000  C 
  C52      1.0000 0.45747  0.01413  0.07613  Biso   1.000  C 
  O41      1.0000 0.41507  0.02613  0.16273  Biso   1.000  O 
  C53      1.0000 0.50577  0.02013  0.20903  Biso   1.000  C 
  C54      1.0000 0.54657  0.00703  0.13593  Biso   1.000  C 
  H7       1.0000 0.50913  0.03567  0.37250  Biso   1.000  H 
  H8       1.0000 0.49087  0.96433  0.62750  Biso   1.000  H 
  O42      1.0000 0.62513  0.89207  0.79657  Biso   1.000  O 
  C55      1.0000 0.65783  0.91347  0.63727  Biso   1.000  C 
  O43      1.0000 0.68803  0.96937  0.59837  Biso   1.000  O 
  C56      1.0000 0.68680  0.84770  0.12430  Biso   1.000  C 
  C57      1.0000 0.67370  0.79380  0.19740  Biso   1.000  C 
  C58      1.0000 0.67550  0.75320  0.02940  Biso   1.000  C 
  O44      1.0000 0.64530  0.69730  0.06830  Biso   1.000  O 
  O45      1.0000 0.70820  0.77460  0.87010  Biso   1.000  O 
  H9       1.0000 0.70233  0.85987  0.96083  Biso   1.000  H 
  C59      1.0000 0.55667  0.54253  0.07613  Biso   1.000  C 
  C60      1.0000 0.51437  0.49423  0.20903  Biso   1.000  C 
  H10      1.0000 0.52654  0.49087  0.37250  Biso   1.000  H 
  O46      1.0000 0.26693  0.37487  0.79657  Biso   1.000  O 
  C61      1.0000 0.25563  0.34217  0.63727  Biso   1.000  C 
  O47      1.0000 0.28133  0.31197  0.59837  Biso   1.000  O 
  C62      1.0000 0.16090  0.31320  0.12430  Biso   1.000  C 
  C63      1.0000 0.12010  0.32630  0.19740  Biso   1.000  C 
  C64      1.0000 0.07770  0.32450  0.02940  Biso   1.000  C 
  O48      1.0000 0.06640  0.29180  0.87010  Biso   1.000  O 
  H11      1.0000 0.15754  0.29767  0.96083  Biso   1.000  H 
  H12      1.0000 0.17580  0.36900  0.70584  Biso   1.000  H 
  O49      1.0000 0.97863  0.36397  0.73497  Biso   1.000  O 
  O50      1.0000 0.97387  0.38893  0.16273  Biso   1.000  O 
  C65      1.0000 0.98587  0.44333  0.07613  Biso   1.000  C 
  C66      1.0000 0.97987  0.48563  0.20903  Biso   1.000  C 
  H13      1.0000 0.96433  0.47346  0.37250  Biso   1.000  H 
  H14      1.0000 0.03567  0.52654  0.62750  Biso   1.000  H 
  O51      1.0000 0.10793  0.73307  0.79657  Biso   1.000  O 
  C67      1.0000 0.08653  0.74437  0.63727  Biso   1.000  C 
  O52      1.0000 0.03063  0.71867  0.59837  Biso   1.000  O 
  C68      1.0000 0.15230  0.83910  0.12430  Biso   1.000  C 
  C69      1.0000 0.20620  0.87990  0.19740  Biso   1.000  C 
  H15      1.0000 0.14013  0.84246  0.96083  Biso   1.000  H 
  H16      1.0000 0.19320  0.82420  0.70584  Biso   1.000  H 
  O53      1.0000 0.31197  0.03063  0.40163  Biso   1.000  O 
  C70      1.0000 0.34217  0.08653  0.36273  Biso   1.000  C 
  O54      1.0000 0.37487  0.10793  0.20343  Biso   1.000  O 
  C71      1.0000 0.31320  0.15230  0.87570  Biso   1.000  C 
  C72      1.0000 0.32630  0.20620  0.80260  Biso   1.000  C 
  H17      1.0000 0.29767  0.14013  0.03917  Biso   1.000  H 
  H18      1.0000 0.36900  0.19320  0.29416  Biso   1.000  H 
