data_image0
_cell_length_a       25.9622
_cell_length_b       25.9622
_cell_length_c       6.82628
_cell_angle_alpha    90
_cell_angle_beta     90
_cell_angle_gamma    120

_symmetry_space_group_name_H-M    "P 1"
_symmetry_int_tables_number       1

loop_
  _symmetry_equiv_pos_as_xyz
  'x, y, z'

loop_
  _atom_site_label
  _atom_site_occupancy
  _atom_site_fract_x
  _atom_site_fract_y
  _atom_site_fract_z
  _atom_site_thermal_displace_type
  _atom_site_B_iso_or_equiv
  _atom_site_type_symbol
  Co1      1.0000 0.97088  0.35282  0.64160  Biso   1.000  Co
  O1       1.0000 0.88500  0.34620  0.76600  Biso   1.000  O 
  C1       1.0000 0.87860  0.38520  0.75400  Biso   1.000  C 
  O2       1.0000 0.87200  0.42420  0.74200  Biso   1.000  O 
  Co2      1.0000 0.98051  0.28473  0.30827  Biso   1.000  Co
  O3       1.0000 0.99410  0.36280  0.19730  Biso   1.000  O 
  C2       1.0000 0.98420  0.40520  0.26530  Biso   1.000  C 
  O4       1.0000 0.96780  0.40470  0.43610  Biso   1.000  O 
  C3       1.0000 0.99500  0.45420  0.11900  Biso   1.000  C 
  C4       1.0000 0.00970  0.45590  0.92180  Biso   1.000  C 
  C5       1.0000 0.01160  0.50200  0.80550  Biso   1.000  C 
  C6       1.0000 0.00500  0.54580  0.88100  Biso   1.000  C 
  C7       1.0000 0.01580  0.59480  0.73470  Biso   1.000  C 
  O5       1.0000 0.03220  0.59530  0.56390  Biso   1.000  O 
  Co3      1.0000 0.02912  0.64718  0.35840  Biso   1.000  Co
  O6       1.0000 0.02947  0.70203  0.13603  Biso   1.000  O 
  C8       1.0000 0.07187  0.75433  0.06803  Biso   1.000  C 
  O7       1.0000 0.07137  0.77023  0.89723  Biso   1.000  O 
  Co4      1.0000 0.01949  0.71527  0.69173  Biso   1.000  Co
  O8       1.0000 0.00590  0.63720  0.80270  Biso   1.000  O 
  Co5      1.0000 0.95139  0.63755  0.02507  Biso   1.000  Co
  O9       1.0000 0.89643  0.63447  0.23057  Biso   1.000  O 
  C9       1.0000 0.91233  0.65087  0.40137  Biso   1.000  C 
  O10      1.0000 0.96463  0.66077  0.46937  Biso   1.000  O 
  C10      1.0000 0.87413  0.66167  0.54767  Biso   1.000  C 
  C11      1.0000 0.88713  0.67637  0.74487  Biso   1.000  C 
  C12      1.0000 0.84293  0.67827  0.86117  Biso   1.000  C 
  C13      1.0000 0.79253  0.67167  0.78567  Biso   1.000  C 
  C14      1.0000 0.75433  0.68247  0.93197  Biso   1.000  C 
  O11      1.0000 0.77023  0.69887  0.10277  Biso   1.000  O 
  Co6      1.0000 0.71527  0.69579  0.30827  Biso   1.000  Co
  O12      1.0000 0.63720  0.63130  0.19730  Biso   1.000  O 
  C15      1.0000 0.59480  0.57900  0.26530  Biso   1.000  C 
  O13      1.0000 0.59530  0.56310  0.43610  Biso   1.000  O 
  Co7      1.0000 0.64718  0.61806  0.64160  Biso   1.000  Co
  O14      1.0000 0.72453  0.64577  0.50667  Biso   1.000  O 
  C16      1.0000 0.77953  0.65697  0.58847  Biso   1.000  C 
  C17      1.0000 0.82373  0.65507  0.47217  Biso   1.000  C 
  H1       1.0000 0.81632  0.64795  0.31505  Biso   1.000  H 
  O15      1.0000 0.58790  0.60880  0.84000  Biso   1.000  O 
  C18      1.0000 0.54410  0.55380  0.92180  Biso   1.000  C 
  C19      1.0000 0.49800  0.50960  0.80550  Biso   1.000  C 
  H2       1.0000 0.49829  0.51701  0.64838  Biso   1.000  H 
  C20      1.0000 0.45420  0.45920  0.88100  Biso   1.000  C 
  C21      1.0000 0.40520  0.42100  0.73470  Biso   1.000  C 
  O16      1.0000 0.40470  0.43690  0.56390  Biso   1.000  O 
  Co8      1.0000 0.35282  0.38194  0.35840  Biso   1.000  Co
  O17      1.0000 0.33923  0.30387  0.46937  Biso   1.000  O 
  C22      1.0000 0.34913  0.26147  0.40137  Biso   1.000  C 
  O18      1.0000 0.36553  0.26197  0.23057  Biso   1.000  O 
  Co9      1.0000 0.36245  0.31385  0.02507  Biso   1.000  Co
  O19      1.0000 0.29797  0.32743  0.13603  Biso   1.000  O 
  C23      1.0000 0.24567  0.31753  0.06803  Biso   1.000  C 
  O20      1.0000 0.22977  0.30113  0.89723  Biso   1.000  O 
  Co10     1.0000 0.28473  0.30421  0.69173  Biso   1.000  Co
  O21      1.0000 0.20547  0.21833  0.56733  Biso   1.000  O 
  C24      1.0000 0.16007  0.21193  0.57933  Biso   1.000  C 
  O22      1.0000 0.11447  0.20533  0.59133  Biso   1.000  O 
  O23      1.0000 0.31243  0.25457  0.82667  Biso   1.000  O 
  C25      1.0000 0.32363  0.21077  0.74487  Biso   1.000  C 
  C26      1.0000 0.32173  0.16467  0.86117  Biso   1.000  C 
  C27      1.0000 0.32833  0.12087  0.78567  Biso   1.000  C 
  C28      1.0000 0.31753  0.07187  0.93197  Biso   1.000  C 
  O24      1.0000 0.30113  0.07137  0.10277  Biso   1.000  O 
  Co11     1.0000 0.30421  0.01949  0.30827  Biso   1.000  Co
  O25      1.0000 0.21833  0.01287  0.43267  Biso   1.000  O 
  C29      1.0000 0.21193  0.05187  0.42067  Biso   1.000  C 
  O26      1.0000 0.20533  0.09087  0.40867  Biso   1.000  O 
  O27      1.0000 0.36870  0.00590  0.19730  Biso   1.000  O 
  C30      1.0000 0.42100  0.01580  0.26530  Biso   1.000  C 
  O28      1.0000 0.43690  0.03220  0.43610  Biso   1.000  O 
  Co12     1.0000 0.38194  0.02912  0.64160  Biso   1.000  Co
  O29      1.0000 0.32743  0.02947  0.86397  Biso   1.000  O 
  Co13     1.0000 0.31385  0.95139  0.97493  Biso   1.000  Co
  O30      1.0000 0.26197  0.89643  0.76943  Biso   1.000  O 
  C31      1.0000 0.26147  0.91233  0.59863  Biso   1.000  C 
  O31      1.0000 0.30387  0.96463  0.53063  Biso   1.000  O 
  C32      1.0000 0.21247  0.87413  0.45233  Biso   1.000  C 
  C33      1.0000 0.21077  0.88713  0.25513  Biso   1.000  C 
  C34      1.0000 0.16467  0.84293  0.13883  Biso   1.000  C 
  C35      1.0000 0.12087  0.79253  0.21433  Biso   1.000  C 
  C36      1.0000 0.12257  0.77953  0.41153  Biso   1.000  C 
  C37      1.0000 0.16867  0.82373  0.52783  Biso   1.000  C 
  H3       1.0000 0.16838  0.81632  0.68495  Biso   1.000  H 
  O32      1.0000 0.07877  0.72453  0.49333  Biso   1.000  O 
  H4       1.0000 0.16496  0.85034  0.98171  Biso   1.000  H 
  O33      1.0000 0.25457  0.94213  0.17333  Biso   1.000  O 
  O34      1.0000 0.39120  0.97910  0.84000  Biso   1.000  O 
  C38      1.0000 0.44620  0.99030  0.92180  Biso   1.000  C 
  C39      1.0000 0.49040  0.98840  0.80550  Biso   1.000  C 
  H5       1.0000 0.48299  0.98128  0.64838  Biso   1.000  H 
  C40      1.0000 0.54080  0.99500  0.88100  Biso   1.000  C 
  C41      1.0000 0.57900  0.98420  0.73470  Biso   1.000  C 
  O35      1.0000 0.56310  0.96780  0.56390  Biso   1.000  O 
  Co14     1.0000 0.61806  0.97088  0.35840  Biso   1.000  Co
  O36      1.0000 0.53880  0.88500  0.23400  Biso   1.000  O 
  C42      1.0000 0.49340  0.87860  0.24600  Biso   1.000  C 
  O37      1.0000 0.44780  0.87200  0.25800  Biso   1.000  O 
  O38      1.0000 0.64577  0.92123  0.49333  Biso   1.000  O 
  C43      1.0000 0.65697  0.87743  0.41153  Biso   1.000  C 
  C44      1.0000 0.65507  0.83133  0.52783  Biso   1.000  C 
  H6       1.0000 0.64795  0.83162  0.68495  Biso   1.000  H 
  C45      1.0000 0.66167  0.78753  0.45233  Biso   1.000  C 
  C46      1.0000 0.65087  0.73853  0.59863  Biso   1.000  C 
  O39      1.0000 0.63447  0.73803  0.76943  Biso   1.000  O 
  Co15     1.0000 0.63755  0.68615  0.97493  Biso   1.000  Co
  O40      1.0000 0.70203  0.67257  0.86397  Biso   1.000  O 
  O41      1.0000 0.55167  0.67953  0.09933  Biso   1.000  O 
  C47      1.0000 0.54527  0.71853  0.08733  Biso   1.000  C 
  O42      1.0000 0.53867  0.75753  0.07533  Biso   1.000  O 
  O43      1.0000 0.68757  0.74543  0.17333  Biso   1.000  O 
  C48      1.0000 0.67637  0.78923  0.25513  Biso   1.000  C 
  C49      1.0000 0.67827  0.83533  0.13883  Biso   1.000  C 
  C50      1.0000 0.67167  0.87913  0.21433  Biso   1.000  C 
  C51      1.0000 0.68247  0.92813  0.06803  Biso   1.000  C 
  O44      1.0000 0.69887  0.92863  0.89723  Biso   1.000  O 
  Co16     1.0000 0.69579  0.98051  0.69173  Biso   1.000  Co
  O45      1.0000 0.63130  0.99410  0.80270  Biso   1.000  O 
  Co17     1.0000 0.68615  0.04861  0.02507  Biso   1.000  Co
  O46      1.0000 0.60880  0.02090  0.16000  Biso   1.000  O 
  C52      1.0000 0.55380  0.00970  0.07820  Biso   1.000  C 
  C53      1.0000 0.50960  0.01160  0.19450  Biso   1.000  C 
  C54      1.0000 0.45920  0.00500  0.11900  Biso   1.000  C 
  H7       1.0000 0.51701  0.01872  0.35162  Biso   1.000  H 
  O47      1.0000 0.73803  0.10357  0.23057  Biso   1.000  O 
  C55      1.0000 0.73853  0.08767  0.40137  Biso   1.000  C 
  O48      1.0000 0.69613  0.03537  0.46937  Biso   1.000  O 
  C56      1.0000 0.78753  0.12587  0.54767  Biso   1.000  C 
  C57      1.0000 0.78923  0.11287  0.74487  Biso   1.000  C 
  C58      1.0000 0.83533  0.15707  0.86117  Biso   1.000  C 
  C59      1.0000 0.87913  0.20747  0.78567  Biso   1.000  C 
  C60      1.0000 0.92813  0.24567  0.93197  Biso   1.000  C 
  O49      1.0000 0.92863  0.22977  0.10277  Biso   1.000  O 
  O50      1.0000 0.97053  0.29797  0.86397  Biso   1.000  O 
  Co18     1.0000 0.04861  0.36245  0.97493  Biso   1.000  Co
  O51      1.0000 0.02090  0.41210  0.84000  Biso   1.000  O 
  O52      1.0000 0.10357  0.36553  0.76943  Biso   1.000  O 
  C61      1.0000 0.08767  0.34913  0.59863  Biso   1.000  C 
  O53      1.0000 0.03537  0.33923  0.53063  Biso   1.000  O 
  C62      1.0000 0.12587  0.33833  0.45233  Biso   1.000  C 
  C63      1.0000 0.11287  0.32363  0.25513  Biso   1.000  C 
  C64      1.0000 0.15707  0.32173  0.13883  Biso   1.000  C 
  C65      1.0000 0.20747  0.32833  0.21433  Biso   1.000  C 
  C66      1.0000 0.22047  0.34303  0.41153  Biso   1.000  C 
  C67      1.0000 0.17627  0.34493  0.52783  Biso   1.000  C 
  H8       1.0000 0.18368  0.35205  0.68495  Biso   1.000  H 
  O54      1.0000 0.27547  0.35423  0.49333  Biso   1.000  O 
  H9       1.0000 0.14966  0.31461  0.98171  Biso   1.000  H 
  O55      1.0000 0.05787  0.31243  0.17333  Biso   1.000  O 
  O56      1.0000 0.12787  0.44833  0.09933  Biso   1.000  O 
  C68      1.0000 0.17327  0.45473  0.08733  Biso   1.000  C 
  O57      1.0000 0.21887  0.46133  0.07533  Biso   1.000  O 
  C69      1.0000 0.87743  0.22047  0.58847  Biso   1.000  C 
  C70      1.0000 0.83133  0.17627  0.47217  Biso   1.000  C 
  H10      1.0000 0.83162  0.18368  0.31505  Biso   1.000  H 
  O58      1.0000 0.92123  0.27547  0.50667  Biso   1.000  O 
  H11      1.0000 0.83504  0.14966  0.01829  Biso   1.000  H 
  O59      1.0000 0.74543  0.05787  0.82667  Biso   1.000  O 
  O60      1.0000 0.67257  0.97053  0.13603  Biso   1.000  O 
  O61      1.0000 0.67953  0.12787  0.90067  Biso   1.000  O 
  C71      1.0000 0.71853  0.17327  0.91267  Biso   1.000  C 
  O62      1.0000 0.75753  0.21887  0.92467  Biso   1.000  O 
  O63      1.0000 0.78167  0.98713  0.56733  Biso   1.000  O 
  C72      1.0000 0.78807  0.94813  0.57933  Biso   1.000  C 
  O64      1.0000 0.79467  0.90913  0.59133  Biso   1.000  O 
  H12      1.0000 0.68539  0.83504  0.98171  Biso   1.000  H 
  O65      1.0000 0.66077  0.69613  0.53063  Biso   1.000  O 
  O66      1.0000 0.32047  0.87213  0.09933  Biso   1.000  O 
  C73      1.0000 0.28147  0.82673  0.08733  Biso   1.000  C 
  O67      1.0000 0.24247  0.78113  0.07533  Biso   1.000  O 
  O68      1.0000 0.35423  0.07877  0.50667  Biso   1.000  O 
  C74      1.0000 0.34303  0.12257  0.58847  Biso   1.000  C 
  C75      1.0000 0.34493  0.16867  0.47217  Biso   1.000  C 
  C76      1.0000 0.33833  0.21247  0.54767  Biso   1.000  C 
  H13      1.0000 0.35205  0.16838  0.31505  Biso   1.000  H 
  O69      1.0000 0.46120  0.11500  0.76600  Biso   1.000  O 
  C77      1.0000 0.50660  0.12140  0.75400  Biso   1.000  C 
  O70      1.0000 0.55220  0.12800  0.74200  Biso   1.000  O 
  H14      1.0000 0.31461  0.16496  0.01829  Biso   1.000  H 
  O71      1.0000 0.36280  0.36870  0.80270  Biso   1.000  O 
  O72      1.0000 0.41210  0.39120  0.16000  Biso   1.000  O 
  C78      1.0000 0.45590  0.44620  0.07820  Biso   1.000  C 
  C79      1.0000 0.50200  0.49040  0.19450  Biso   1.000  C 
  C80      1.0000 0.54580  0.54080  0.11900  Biso   1.000  C 
  H15      1.0000 0.50171  0.48299  0.35162  Biso   1.000  H 
  O73      1.0000 0.44833  0.32047  0.90067  Biso   1.000  O 
  C81      1.0000 0.45473  0.28147  0.91267  Biso   1.000  C 
  O74      1.0000 0.46133  0.24247  0.92467  Biso   1.000  O 
  O75      1.0000 0.34620  0.46120  0.23400  Biso   1.000  O 
  C82      1.0000 0.38520  0.50660  0.24600  Biso   1.000  C 
  O76      1.0000 0.42420  0.55220  0.25800  Biso   1.000  O 
  O77      1.0000 0.65380  0.53880  0.76600  Biso   1.000  O 
  C83      1.0000 0.61480  0.49340  0.75400  Biso   1.000  C 
  O78      1.0000 0.57580  0.44780  0.74200  Biso   1.000  O 
  O79      1.0000 0.79453  0.78167  0.43267  Biso   1.000  O 
  C84      1.0000 0.83993  0.78807  0.42067  Biso   1.000  C 
  O80      1.0000 0.88553  0.79467  0.40867  Biso   1.000  O 
  H16      1.0000 0.85034  0.68539  0.01829  Biso   1.000  H 
  O81      1.0000 0.94213  0.68757  0.82667  Biso   1.000  O 
  O82      1.0000 0.97910  0.58790  0.16000  Biso   1.000  O 
  C85      1.0000 0.99030  0.54410  0.07820  Biso   1.000  C 
  C86      1.0000 0.98840  0.49800  0.19450  Biso   1.000  C 
  H17      1.0000 0.98128  0.49829  0.35162  Biso   1.000  H 
  O83      1.0000 0.87213  0.55167  0.90067  Biso   1.000  O 
  C87      1.0000 0.82673  0.54527  0.91267  Biso   1.000  C 
  O84      1.0000 0.78113  0.53867  0.92467  Biso   1.000  O 
  O85      1.0000 0.01287  0.79453  0.56733  Biso   1.000  O 
  C88      1.0000 0.05187  0.83993  0.57933  Biso   1.000  C 
  O86      1.0000 0.09087  0.88553  0.59133  Biso   1.000  O 
  O87      1.0000 0.11500  0.65380  0.23400  Biso   1.000  O 
  C89      1.0000 0.12140  0.61480  0.24600  Biso   1.000  C 
  O88      1.0000 0.12800  0.57580  0.25800  Biso   1.000  O 
  H18      1.0000 0.01872  0.50171  0.64838  Biso   1.000  H 
  O89      1.0000 0.98713  0.20547  0.43267  Biso   1.000  O 
  C90      1.0000 0.94813  0.16007  0.42067  Biso   1.000  C 
  O90      1.0000 0.90913  0.11447  0.40867  Biso   1.000  O 
