data_image0
_cell_length_a       25.9634
_cell_length_b       25.9634
_cell_length_c       6.82814
_cell_angle_alpha    90
_cell_angle_beta     90
_cell_angle_gamma    120

_symmetry_space_group_name_H-M    "P 1"
_symmetry_int_tables_number       1

loop_
  _symmetry_equiv_pos_as_xyz
  'x, y, z'

loop_
  _atom_site_label
  _atom_site_occupancy
  _atom_site_fract_x
  _atom_site_fract_y
  _atom_site_fract_z
  _atom_site_thermal_displace_type
  _atom_site_B_iso_or_equiv
  _atom_site_type_symbol
  C1       1.0000 0.01090  0.50180  0.80510  Biso   1.000  C 
  C2       1.0000 0.00960  0.45600  0.92250  Biso   1.000  C 
  O1       1.0000 0.02070  0.41200  0.83910  Biso   1.000  O 
  Co1      1.0000 0.04876  0.36270  0.97513  Biso   1.000  Co
  O2       1.0000 0.99370  0.36250  0.19570  Biso   1.000  O 
  Co2      1.0000 0.98061  0.28458  0.30847  Biso   1.000  Co
  O3       1.0000 0.98793  0.20367  0.43367  Biso   1.000  O 
  C3       1.0000 0.94963  0.15777  0.42567  Biso   1.000  C 
  O4       1.0000 0.91133  0.11177  0.41867  Biso   1.000  O 
  O5       1.0000 0.05797  0.31263  0.17243  Biso   1.000  O 
  C4       1.0000 0.11307  0.32373  0.25583  Biso   1.000  C 
  C5       1.0000 0.15757  0.32243  0.13843  Biso   1.000  C 
  C6       1.0000 0.20737  0.32843  0.21403  Biso   1.000  C 
  C7       1.0000 0.22027  0.34293  0.41083  Biso   1.000  C 
  O6       1.0000 0.27537  0.35403  0.49423  Biso   1.000  O 
  Co3      1.0000 0.28458  0.30396  0.69153  Biso   1.000  Co
  O7       1.0000 0.20367  0.21573  0.56633  Biso   1.000  O 
  C8       1.0000 0.15777  0.20813  0.57433  Biso   1.000  C 
  O8       1.0000 0.11177  0.20043  0.58133  Biso   1.000  O 
  Co4      1.0000 0.36270  0.31395  0.02487  Biso   1.000  Co
  O9       1.0000 0.41200  0.39130  0.16090  Biso   1.000  O 
  Co5      1.0000 0.35272  0.38209  0.35820  Biso   1.000  Co
  O10      1.0000 0.34540  0.46300  0.23300  Biso   1.000  O 
  C9       1.0000 0.38370  0.50890  0.24100  Biso   1.000  C 
  O11      1.0000 0.42200  0.55490  0.24800  Biso   1.000  O 
  O12      1.0000 0.40490  0.43730  0.56520  Biso   1.000  O 
  C10      1.0000 0.40520  0.42100  0.73480  Biso   1.000  C 
  O13      1.0000 0.36250  0.36880  0.80430  Biso   1.000  O 
  C11      1.0000 0.45440  0.45930  0.88070  Biso   1.000  C 
  C12      1.0000 0.45600  0.44640  0.07750  Biso   1.000  C 
  C13      1.0000 0.50180  0.49090  0.19490  Biso   1.000  C 
  C14      1.0000 0.54560  0.54070  0.11930  Biso   1.000  C 
  C15      1.0000 0.59480  0.57900  0.26520  Biso   1.000  C 
  O14      1.0000 0.63750  0.63120  0.19570  Biso   1.000  O 
  Co6      1.0000 0.71542  0.69604  0.30847  Biso   1.000  Co
  O15      1.0000 0.79633  0.78427  0.43367  Biso   1.000  O 
  C16      1.0000 0.84223  0.79187  0.42567  Biso   1.000  C 
  O16      1.0000 0.88823  0.79957  0.41867  Biso   1.000  O 
  O17      1.0000 0.68737  0.74533  0.17243  Biso   1.000  O 
  C17      1.0000 0.67627  0.78933  0.25583  Biso   1.000  C 
  C18      1.0000 0.67757  0.83513  0.13843  Biso   1.000  C 
  C19      1.0000 0.67157  0.87893  0.21403  Biso   1.000  C 
  C20      1.0000 0.65707  0.87733  0.41083  Biso   1.000  C 
  O18      1.0000 0.64597  0.92133  0.49423  Biso   1.000  O 
  Co7      1.0000 0.61791  0.97063  0.35820  Biso   1.000  Co
  O19      1.0000 0.53700  0.88240  0.23300  Biso   1.000  O 
  C21      1.0000 0.49110  0.87480  0.24100  Biso   1.000  C 
  O20      1.0000 0.44510  0.86710  0.24800  Biso   1.000  O 
  Co8      1.0000 0.69604  0.98061  0.69153  Biso   1.000  Co
  O21      1.0000 0.78427  0.98793  0.56633  Biso   1.000  O 
  C22      1.0000 0.79187  0.94963  0.57433  Biso   1.000  C 
  O22      1.0000 0.79957  0.91133  0.58133  Biso   1.000  O 
  O23      1.0000 0.74533  0.05797  0.82757  Biso   1.000  O 
  Co9      1.0000 0.68605  0.04876  0.02487  Biso   1.000  Co
  O24      1.0000 0.60870  0.02070  0.16090  Biso   1.000  O 
  C23      1.0000 0.55360  0.00960  0.07750  Biso   1.000  C 
  C24      1.0000 0.50910  0.01090  0.19490  Biso   1.000  C 
  C25      1.0000 0.45930  0.00490  0.11930  Biso   1.000  C 
  C26      1.0000 0.42100  0.01580  0.26520  Biso   1.000  C 
  O25      1.0000 0.36880  0.00630  0.19570  Biso   1.000  O 
  Co10     1.0000 0.30396  0.01939  0.30847  Biso   1.000  Co
  O26      1.0000 0.21573  0.01207  0.43367  Biso   1.000  O 
  C27      1.0000 0.20813  0.05037  0.42567  Biso   1.000  C 
  O27      1.0000 0.20043  0.08867  0.41867  Biso   1.000  O 
  O28      1.0000 0.25467  0.94203  0.17243  Biso   1.000  O 
  C28      1.0000 0.21067  0.88693  0.25583  Biso   1.000  C 
  C29      1.0000 0.16487  0.84243  0.13843  Biso   1.000  C 
  C30      1.0000 0.12107  0.79263  0.21403  Biso   1.000  C 
  C31      1.0000 0.07187  0.75433  0.06813  Biso   1.000  C 
  O29      1.0000 0.02917  0.70213  0.13763  Biso   1.000  O 
  Co11     1.0000 0.02937  0.64728  0.35820  Biso   1.000  Co
  Co12     1.0000 0.01939  0.71542  0.69153  Biso   1.000  Co
  O30      1.0000 0.01207  0.79633  0.56633  Biso   1.000  O 
  C32      1.0000 0.05037  0.84223  0.57433  Biso   1.000  C 
  O31      1.0000 0.08867  0.88823  0.58133  Biso   1.000  O 
  Co13     1.0000 0.95124  0.63730  0.02487  Biso   1.000  Co
  O32      1.0000 0.97930  0.58800  0.16090  Biso   1.000  O 
  C33      1.0000 0.99040  0.54400  0.07750  Biso   1.000  C 
  C34      1.0000 0.98910  0.49820  0.19490  Biso   1.000  C 
  H1       1.0000 0.98297  0.49906  0.35240  Biso   1.000  H 
  C35      1.0000 0.99510  0.45440  0.11930  Biso   1.000  C 
  C36      1.0000 0.98420  0.40520  0.26520  Biso   1.000  C 
  O33      1.0000 0.96760  0.40490  0.43480  Biso   1.000  O 
  Co14     1.0000 0.97063  0.35272  0.64180  Biso   1.000  Co
  O34      1.0000 0.88240  0.34540  0.76700  Biso   1.000  O 
  C37      1.0000 0.87480  0.38370  0.75900  Biso   1.000  C 
  O35      1.0000 0.86710  0.42200  0.75200  Biso   1.000  O 
  O36      1.0000 0.03547  0.33963  0.52903  Biso   1.000  O 
  C38      1.0000 0.08767  0.34913  0.59853  Biso   1.000  C 
  O37      1.0000 0.10397  0.36573  0.76813  Biso   1.000  O 
  C39      1.0000 0.12597  0.33823  0.45263  Biso   1.000  C 
  C40      1.0000 0.17577  0.34423  0.52823  Biso   1.000  C 
  H2       1.0000 0.18276  0.35037  0.68573  Biso   1.000  H 
  O38      1.0000 0.92133  0.27537  0.50577  Biso   1.000  O 
  C41      1.0000 0.87733  0.22027  0.58917  Biso   1.000  C 
  C42      1.0000 0.83153  0.17577  0.47177  Biso   1.000  C 
  C43      1.0000 0.78773  0.12597  0.54737  Biso   1.000  C 
  C44      1.0000 0.78933  0.11307  0.74417  Biso   1.000  C 
  C45      1.0000 0.83513  0.15757  0.86157  Biso   1.000  C 
  C46      1.0000 0.87893  0.20737  0.78597  Biso   1.000  C 
  C47      1.0000 0.92813  0.24567  0.93187  Biso   1.000  C 
  O39      1.0000 0.97083  0.29787  0.86237  Biso   1.000  O 
  O40      1.0000 0.92843  0.22937  0.10147  Biso   1.000  O 
  H3       1.0000 0.83427  0.15058  0.01907  Biso   1.000  H 
  C48      1.0000 0.73853  0.08767  0.40147  Biso   1.000  C 
  O41      1.0000 0.69583  0.03547  0.47097  Biso   1.000  O 
  O42      1.0000 0.73823  0.10397  0.23187  Biso   1.000  O 
  H4       1.0000 0.83239  0.18276  0.31427  Biso   1.000  H 
  C49      1.0000 0.00490  0.54560  0.88070  Biso   1.000  C 
  C50      1.0000 0.01580  0.59480  0.73480  Biso   1.000  C 
  O43      1.0000 0.00630  0.63750  0.80430  Biso   1.000  O 
  O44      1.0000 0.03240  0.59510  0.56520  Biso   1.000  O 
  O45      1.0000 0.94203  0.68737  0.82757  Biso   1.000  O 
  C51      1.0000 0.88693  0.67627  0.74417  Biso   1.000  C 
  C52      1.0000 0.84243  0.67757  0.86157  Biso   1.000  C 
  C53      1.0000 0.79263  0.67157  0.78597  Biso   1.000  C 
  C54      1.0000 0.75433  0.68247  0.93187  Biso   1.000  C 
  O46      1.0000 0.70213  0.67297  0.86237  Biso   1.000  O 
  Co15     1.0000 0.64728  0.61791  0.64180  Biso   1.000  Co
  O47      1.0000 0.65460  0.53700  0.76700  Biso   1.000  O 
  C55      1.0000 0.61630  0.49110  0.75900  Biso   1.000  C 
  O48      1.0000 0.57800  0.44510  0.75200  Biso   1.000  O 
  Co16     1.0000 0.63730  0.68605  0.97513  Biso   1.000  Co
  O49      1.0000 0.54907  0.67873  0.10033  Biso   1.000  O 
  C56      1.0000 0.54147  0.71703  0.09233  Biso   1.000  C 
  O50      1.0000 0.53377  0.75533  0.08533  Biso   1.000  O 
  O51      1.0000 0.58800  0.60870  0.83910  Biso   1.000  O 
  C57      1.0000 0.54400  0.55360  0.92250  Biso   1.000  C 
  C58      1.0000 0.49820  0.50910  0.80510  Biso   1.000  C 
  H5       1.0000 0.49906  0.51609  0.64760  Biso   1.000  H 
  O52      1.0000 0.63427  0.73823  0.76813  Biso   1.000  O 
  C59      1.0000 0.65087  0.73853  0.59853  Biso   1.000  C 
  O53      1.0000 0.66037  0.69583  0.52903  Biso   1.000  O 
  C60      1.0000 0.66177  0.78773  0.45263  Biso   1.000  C 
  C61      1.0000 0.65577  0.83153  0.52823  Biso   1.000  C 
  H6       1.0000 0.64963  0.83239  0.68573  Biso   1.000  H 
  O54      1.0000 0.72463  0.64597  0.50577  Biso   1.000  O 
  C62      1.0000 0.77973  0.65707  0.58917  Biso   1.000  C 
  C63      1.0000 0.82423  0.65577  0.47177  Biso   1.000  C 
  H7       1.0000 0.81724  0.64963  0.31427  Biso   1.000  H 
  C64      1.0000 0.87403  0.66177  0.54737  Biso   1.000  C 
  C65      1.0000 0.91233  0.65087  0.40147  Biso   1.000  C 
  O55      1.0000 0.89603  0.63427  0.23187  Biso   1.000  O 
  O56      1.0000 0.96453  0.66037  0.47097  Biso   1.000  O 
  O57      1.0000 0.59510  0.56270  0.43480  Biso   1.000  O 
  O58      1.0000 0.77063  0.69907  0.10147  Biso   1.000  O 
  H8       1.0000 0.84942  0.68370  0.01907  Biso   1.000  H 
  O59      1.0000 0.87033  0.54907  0.89967  Biso   1.000  O 
  C66      1.0000 0.82443  0.54147  0.90767  Biso   1.000  C 
  O60      1.0000 0.77843  0.53377  0.91467  Biso   1.000  O 
  O61      1.0000 0.07867  0.72463  0.49423  Biso   1.000  O 
  C67      1.0000 0.12267  0.77973  0.41083  Biso   1.000  C 
  C68      1.0000 0.16847  0.82423  0.52823  Biso   1.000  C 
  H9       1.0000 0.16761  0.81724  0.68573  Biso   1.000  H 
  C69      1.0000 0.21227  0.87403  0.45263  Biso   1.000  C 
  C70      1.0000 0.26147  0.91233  0.59853  Biso   1.000  C 
  O62      1.0000 0.26177  0.89603  0.76813  Biso   1.000  O 
  Co17     1.0000 0.31395  0.95124  0.97513  Biso   1.000  Co
  O63      1.0000 0.32703  0.02917  0.86237  Biso   1.000  O 
  Co18     1.0000 0.38209  0.02937  0.64180  Biso   1.000  Co
  O64      1.0000 0.46300  0.11760  0.76700  Biso   1.000  O 
  C71      1.0000 0.50890  0.12520  0.75900  Biso   1.000  C 
  O65      1.0000 0.55490  0.13290  0.75200  Biso   1.000  O 
  O66      1.0000 0.39130  0.97930  0.83910  Biso   1.000  O 
  C72      1.0000 0.44640  0.99040  0.92250  Biso   1.000  C 
  C73      1.0000 0.49090  0.98910  0.80510  Biso   1.000  C 
  H10      1.0000 0.48391  0.98297  0.64760  Biso   1.000  H 
  C74      1.0000 0.54070  0.99510  0.88070  Biso   1.000  C 
  C75      1.0000 0.57900  0.98420  0.73480  Biso   1.000  C 
  O67      1.0000 0.56270  0.96760  0.56520  Biso   1.000  O 
  O68      1.0000 0.63120  0.99370  0.80430  Biso   1.000  O 
  O69      1.0000 0.35403  0.07867  0.50577  Biso   1.000  O 
  C76      1.0000 0.34293  0.12267  0.58917  Biso   1.000  C 
  C77      1.0000 0.34423  0.16847  0.47177  Biso   1.000  C 
  C78      1.0000 0.33823  0.21227  0.54737  Biso   1.000  C 
  C79      1.0000 0.32373  0.21067  0.74417  Biso   1.000  C 
  O70      1.0000 0.31263  0.25467  0.82757  Biso   1.000  O 
  C80      1.0000 0.32243  0.16487  0.86157  Biso   1.000  C 
  C81      1.0000 0.32843  0.12107  0.78597  Biso   1.000  C 
  C82      1.0000 0.31753  0.07187  0.93187  Biso   1.000  C 
  O71      1.0000 0.30093  0.07157  0.10147  Biso   1.000  O 
  H11      1.0000 0.31630  0.16573  0.01907  Biso   1.000  H 
  C83      1.0000 0.34913  0.26147  0.40147  Biso   1.000  C 
  O72      1.0000 0.36573  0.26177  0.23187  Biso   1.000  O 
  O73      1.0000 0.33963  0.30417  0.47097  Biso   1.000  O 
  H12      1.0000 0.35037  0.16761  0.31427  Biso   1.000  H 
  O74      1.0000 0.43730  0.03240  0.43480  Biso   1.000  O 
  O75      1.0000 0.30417  0.96453  0.52903  Biso   1.000  O 
  O76      1.0000 0.32127  0.87033  0.10033  Biso   1.000  O 
  C84      1.0000 0.28297  0.82443  0.09233  Biso   1.000  C 
  O77      1.0000 0.24467  0.77843  0.08533  Biso   1.000  O 
  O78      1.0000 0.07157  0.77063  0.89853  Biso   1.000  O 
  O79      1.0000 0.11760  0.65460  0.23300  Biso   1.000  O 
  C85      1.0000 0.12520  0.61630  0.24100  Biso   1.000  C 
  O80      1.0000 0.13290  0.57800  0.24800  Biso   1.000  O 
  H13      1.0000 0.16573  0.84942  0.98093  Biso   1.000  H 
  H14      1.0000 0.51609  0.01703  0.35240  Biso   1.000  H 
  O81      1.0000 0.67297  0.97083  0.13763  Biso   1.000  O 
  C86      1.0000 0.68247  0.92813  0.06813  Biso   1.000  C 
  O82      1.0000 0.69907  0.92843  0.89853  Biso   1.000  O 
  O83      1.0000 0.67873  0.12967  0.89967  Biso   1.000  O 
  C87      1.0000 0.71703  0.17557  0.90767  Biso   1.000  C 
  O84      1.0000 0.75533  0.22157  0.91467  Biso   1.000  O 
  H15      1.0000 0.68370  0.83427  0.98093  Biso   1.000  H 
  H16      1.0000 0.50094  0.48391  0.35240  Biso   1.000  H 
  O85      1.0000 0.29787  0.32703  0.13763  Biso   1.000  O 
  C88      1.0000 0.24567  0.31753  0.06813  Biso   1.000  C 
  O86      1.0000 0.22937  0.30093  0.89853  Biso   1.000  O 
  O87      1.0000 0.45093  0.32127  0.89967  Biso   1.000  O 
  C89      1.0000 0.45853  0.28297  0.90767  Biso   1.000  C 
  O88      1.0000 0.46623  0.24467  0.91467  Biso   1.000  O 
  H17      1.0000 0.15058  0.31630  0.98093  Biso   1.000  H 
  O89      1.0000 0.12967  0.45093  0.10033  Biso   1.000  O 
  C90      1.0000 0.17557  0.45853  0.09233  Biso   1.000  C 
  O90      1.0000 0.22157  0.46623  0.08533  Biso   1.000  O 
  H18      1.0000 0.01703  0.50094  0.64760  Biso   1.000  H 
