data_image0
_cell_length_a       9.9792
_cell_length_b       9.9792
_cell_length_c       43.855
_cell_angle_alpha    90
_cell_angle_beta     90
_cell_angle_gamma    90

_symmetry_space_group_name_H-M    "P 1"
_symmetry_int_tables_number       1

loop_
  _symmetry_equiv_pos_as_xyz
  'x, y, z'

loop_
  _atom_site_label
  _atom_site_occupancy
  _atom_site_fract_x
  _atom_site_fract_y
  _atom_site_fract_z
  _atom_site_thermal_displace_type
  _atom_site_B_iso_or_equiv
  _atom_site_type_symbol
  In1      1.0000 0.95299  0.95299  0.12500  Biso   1.000  In
  C1       1.0000 0.70150  0.94890  0.10220  Biso   1.000  C 
  O1       1.0000 0.80840  0.95840  0.08782  Biso   1.000  O 
  C2       1.0000 0.56610  0.95360  0.08650  Biso   1.000  C 
  C3       1.0000 0.57230  0.95520  0.05440  Biso   1.000  C 
  H1       1.0000 0.65400  0.95620  0.04420  Biso   1.000  H 
  C4       1.0000 0.45360  0.95510  0.03891  Biso   1.000  C 
  C5       1.0000 0.33020  0.95070  0.05550  Biso   1.000  C 
  H2       1.0000 0.24950  0.94390  0.04500  Biso   1.000  H 
  C6       1.0000 0.32990  0.95640  0.08642  Biso   1.000  C 
  C7       1.0000 0.19720  0.96170  0.10420  Biso   1.000  C 
  O2       1.0000 0.09680  0.94950  0.08642  Biso   1.000  O 
  O3       1.0000 0.19010  0.94600  0.13031  Biso   1.000  O 
  C8       1.0000 0.45030  0.96180  0.10260  Biso   1.000  C 
  H3       1.0000 0.45110  0.97070  0.12370  Biso   1.000  H 
  N1       1.0000 0.44240  0.95250  0.00619  Biso   1.000  N 
  N2       1.0000 0.55760  0.95250  0.99381  Biso   1.000  N 
  C9       1.0000 0.54640  0.95510  0.96109  Biso   1.000  C 
  C10      1.0000 0.66980  0.95070  0.94450  Biso   1.000  C 
  H4       1.0000 0.75050  0.94390  0.95500  Biso   1.000  H 
  C11      1.0000 0.67010  0.95640  0.91358  Biso   1.000  C 
  C12      1.0000 0.80280  0.96170  0.89580  Biso   1.000  C 
  O4       1.0000 0.90320  0.94950  0.91358  Biso   1.000  O 
  In2      1.0000 0.04701  0.95299  0.87500  Biso   1.000  In
  O5       1.0000 0.04160  0.80840  0.83782  Biso   1.000  O 
  C13      1.0000 0.05110  0.70150  0.85220  Biso   1.000  C 
  C14      1.0000 0.04640  0.56610  0.83650  Biso   1.000  C 
  C15      1.0000 0.04480  0.57230  0.80440  Biso   1.000  C 
  C16      1.0000 0.04490  0.45360  0.78891  Biso   1.000  C 
  C17      1.0000 0.04930  0.33020  0.80550  Biso   1.000  C 
  H5       1.0000 0.05610  0.24950  0.79500  Biso   1.000  H 
  C18      1.0000 0.04360  0.32990  0.83642  Biso   1.000  C 
  C19      1.0000 0.03830  0.19720  0.85420  Biso   1.000  C 
  O6       1.0000 0.05050  0.09680  0.83642  Biso   1.000  O 
  O7       1.0000 0.05400  0.19010  0.88031  Biso   1.000  O 
  C20      1.0000 0.03820  0.45030  0.85260  Biso   1.000  C 
  H6       1.0000 0.02930  0.45110  0.87370  Biso   1.000  H 
  N3       1.0000 0.04750  0.44240  0.75619  Biso   1.000  N 
  N4       1.0000 0.04750  0.55760  0.74381  Biso   1.000  N 
  C21      1.0000 0.04490  0.54640  0.71109  Biso   1.000  C 
  C22      1.0000 0.04930  0.66980  0.69450  Biso   1.000  C 
  H7       1.0000 0.05610  0.75050  0.70500  Biso   1.000  H 
  C23      1.0000 0.04360  0.67010  0.66358  Biso   1.000  C 
  C24      1.0000 0.03830  0.80280  0.64580  Biso   1.000  C 
  O8       1.0000 0.05050  0.90320  0.66358  Biso   1.000  O 
  In3      1.0000 0.04701  0.04701  0.62500  Biso   1.000  In
  O9       1.0000 0.19160  0.04160  0.58782  Biso   1.000  O 
  C25      1.0000 0.29850  0.05110  0.60220  Biso   1.000  C 
  C26      1.0000 0.43390  0.04640  0.58650  Biso   1.000  C 
  C27      1.0000 0.54970  0.03820  0.60260  Biso   1.000  C 
  C28      1.0000 0.67010  0.04360  0.58642  Biso   1.000  C 
  C29      1.0000 0.66980  0.04930  0.55550  Biso   1.000  C 
  H8       1.0000 0.75050  0.05610  0.54500  Biso   1.000  H 
  C30      1.0000 0.54640  0.04490  0.53891  Biso   1.000  C 
  N5       1.0000 0.55760  0.04750  0.50619  Biso   1.000  N 
  N6       1.0000 0.44240  0.04750  0.49381  Biso   1.000  N 
  C31      1.0000 0.45360  0.04490  0.46109  Biso   1.000  C 
  C32      1.0000 0.33020  0.04930  0.44450  Biso   1.000  C 
  H9       1.0000 0.24950  0.05610  0.45500  Biso   1.000  H 
  C33      1.0000 0.32990  0.04360  0.41358  Biso   1.000  C 
  C34      1.0000 0.19720  0.03830  0.39580  Biso   1.000  C 
  O10      1.0000 0.09680  0.05050  0.41358  Biso   1.000  O 
  In4      1.0000 0.95299  0.04701  0.37500  Biso   1.000  In
  C35      1.0000 0.94890  0.29850  0.35220  Biso   1.000  C 
  O11      1.0000 0.95840  0.19160  0.33782  Biso   1.000  O 
  C36      1.0000 0.95360  0.43390  0.33650  Biso   1.000  C 
  C37      1.0000 0.95520  0.42770  0.30440  Biso   1.000  C 
  C38      1.0000 0.95510  0.54640  0.28891  Biso   1.000  C 
  C39      1.0000 0.95070  0.66980  0.30550  Biso   1.000  C 
  H10      1.0000 0.94390  0.75050  0.29500  Biso   1.000  H 
  C40      1.0000 0.95640  0.67010  0.33642  Biso   1.000  C 
  C41      1.0000 0.96170  0.80280  0.35420  Biso   1.000  C 
  O12      1.0000 0.94950  0.90320  0.33642  Biso   1.000  O 
  O13      1.0000 0.94600  0.80990  0.38031  Biso   1.000  O 
  C42      1.0000 0.96180  0.54970  0.35260  Biso   1.000  C 
  H11      1.0000 0.97070  0.54890  0.37370  Biso   1.000  H 
  N7       1.0000 0.95250  0.55760  0.25619  Biso   1.000  N 
  N8       1.0000 0.95250  0.44240  0.24381  Biso   1.000  N 
  C43      1.0000 0.95510  0.45360  0.21109  Biso   1.000  C 
  C44      1.0000 0.95070  0.33020  0.19450  Biso   1.000  C 
  H12      1.0000 0.94390  0.24950  0.20500  Biso   1.000  H 
  C45      1.0000 0.95640  0.32990  0.16358  Biso   1.000  C 
  C46      1.0000 0.96170  0.19720  0.14580  Biso   1.000  C 
  O14      1.0000 0.94950  0.09680  0.16358  Biso   1.000  O 
  O15      1.0000 0.94600  0.19010  0.11969  Biso   1.000  O 
  C47      1.0000 0.96180  0.45030  0.14740  Biso   1.000  C 
  H13      1.0000 0.97070  0.45110  0.12630  Biso   1.000  H 
  C48      1.0000 0.95360  0.56610  0.16350  Biso   1.000  C 
  C49      1.0000 0.95520  0.57230  0.19560  Biso   1.000  C 
  H14      1.0000 0.95620  0.65400  0.20580  Biso   1.000  H 
  C50      1.0000 0.94890  0.70150  0.14780  Biso   1.000  C 
  O16      1.0000 0.95840  0.80840  0.16218  Biso   1.000  O 
  O17      1.0000 0.96010  0.70570  0.11876  Biso   1.000  O 
  H15      1.0000 0.95620  0.34600  0.29420  Biso   1.000  H 
  O18      1.0000 0.96010  0.29430  0.38124  Biso   1.000  O 
  O19      1.0000 0.70570  0.03990  0.36876  Biso   1.000  O 
  C51      1.0000 0.70150  0.05110  0.39780  Biso   1.000  C 
  O20      1.0000 0.80840  0.04160  0.41218  Biso   1.000  O 
  C52      1.0000 0.56610  0.04640  0.41350  Biso   1.000  C 
  C53      1.0000 0.45030  0.03820  0.39740  Biso   1.000  C 
  H16      1.0000 0.45110  0.02930  0.37630  Biso   1.000  H 
  C54      1.0000 0.57230  0.04480  0.44560  Biso   1.000  C 
  H17      1.0000 0.65400  0.04380  0.45580  Biso   1.000  H 
  O21      1.0000 0.19010  0.05400  0.36969  Biso   1.000  O 
  C55      1.0000 0.42770  0.04480  0.55440  Biso   1.000  C 
  H18      1.0000 0.34600  0.04380  0.54420  Biso   1.000  H 
  C56      1.0000 0.80280  0.03830  0.60420  Biso   1.000  C 
  O22      1.0000 0.90320  0.05050  0.58642  Biso   1.000  O 
  O23      1.0000 0.80990  0.05400  0.63031  Biso   1.000  O 
  H19      1.0000 0.54890  0.02930  0.62370  Biso   1.000  H 
  O24      1.0000 0.29430  0.03990  0.63124  Biso   1.000  O 
  O25      1.0000 0.03990  0.29430  0.61876  Biso   1.000  O 
  C57      1.0000 0.05110  0.29850  0.64780  Biso   1.000  C 
  O26      1.0000 0.04160  0.19160  0.66218  Biso   1.000  O 
  C58      1.0000 0.04640  0.43390  0.66350  Biso   1.000  C 
  C59      1.0000 0.04480  0.42770  0.69560  Biso   1.000  C 
  H20      1.0000 0.04380  0.34600  0.70580  Biso   1.000  H 
  C60      1.0000 0.03820  0.54970  0.64740  Biso   1.000  C 
  H21      1.0000 0.02930  0.54890  0.62630  Biso   1.000  H 
  O27      1.0000 0.05400  0.80990  0.61969  Biso   1.000  O 
  H22      1.0000 0.04380  0.65400  0.79420  Biso   1.000  H 
  O28      1.0000 0.03990  0.70570  0.88124  Biso   1.000  O 
  O29      1.0000 0.29430  0.96010  0.86876  Biso   1.000  O 
  C61      1.0000 0.29850  0.94890  0.89780  Biso   1.000  C 
  O30      1.0000 0.19160  0.95840  0.91218  Biso   1.000  O 
  C62      1.0000 0.43390  0.95360  0.91350  Biso   1.000  C 
  C63      1.0000 0.42770  0.95520  0.94560  Biso   1.000  C 
  H23      1.0000 0.34600  0.95620  0.95580  Biso   1.000  H 
  C64      1.0000 0.54970  0.96180  0.89740  Biso   1.000  C 
  H24      1.0000 0.54890  0.97070  0.87630  Biso   1.000  H 
  O31      1.0000 0.80990  0.94600  0.86969  Biso   1.000  O 
  O32      1.0000 0.70570  0.96010  0.13124  Biso   1.000  O 
