data_image0
_cell_length_a       14.1613
_cell_length_b       23.0839
_cell_length_c       14.8676
_cell_angle_alpha    90
_cell_angle_beta     104.296
_cell_angle_gamma    90

_symmetry_space_group_name_H-M    "P 1"
_symmetry_int_tables_number       1

loop_
  _symmetry_equiv_pos_as_xyz
  'x, y, z'

loop_
  _atom_site_label
  _atom_site_occupancy
  _atom_site_fract_x
  _atom_site_fract_y
  _atom_site_fract_z
  _atom_site_thermal_displace_type
  _atom_site_B_iso_or_equiv
  _atom_site_type_symbol
  Br1      1.0000 0.15247  0.38452  0.55185  Biso   1.000  Br
  Br2      1.0000 0.84753  0.38452  0.94815  Biso   1.000  Br
  Br3      1.0000 0.65247  0.88452  0.55185  Biso   1.000  Br
  Br4      1.0000 0.34753  0.88452  0.94815  Biso   1.000  Br
  Br5      1.0000 0.84753  0.61548  0.44815  Biso   1.000  Br
  Br6      1.0000 0.15247  0.61548  0.05185  Biso   1.000  Br
  Br7      1.0000 0.34753  0.11548  0.44815  Biso   1.000  Br
  Br8      1.0000 0.65247  0.11548  0.05185  Biso   1.000  Br
  C1       1.0000 0.21090  0.42160  0.66410  Biso   1.000  C 
  C2       1.0000 0.78910  0.42160  0.83590  Biso   1.000  C 
  C3       1.0000 0.71090  0.92160  0.66410  Biso   1.000  C 
  C4       1.0000 0.28910  0.92160  0.83590  Biso   1.000  C 
  C5       1.0000 0.78910  0.57840  0.33590  Biso   1.000  C 
  C6       1.0000 0.21090  0.57840  0.16410  Biso   1.000  C 
  C7       1.0000 0.28910  0.07840  0.33590  Biso   1.000  C 
  C8       1.0000 0.71090  0.07840  0.16410  Biso   1.000  C 
  C9       1.0000 0.15560  0.45840  0.70580  Biso   1.000  C 
  C10      1.0000 0.84440  0.45840  0.79420  Biso   1.000  C 
  C11      1.0000 0.65560  0.95840  0.70580  Biso   1.000  C 
  C12      1.0000 0.34440  0.95840  0.79420  Biso   1.000  C 
  C13      1.0000 0.84440  0.54160  0.29420  Biso   1.000  C 
  C14      1.0000 0.15560  0.54160  0.20580  Biso   1.000  C 
  C15      1.0000 0.34440  0.04160  0.29420  Biso   1.000  C 
  C16      1.0000 0.65560  0.04160  0.20580  Biso   1.000  C 
  C17      1.0000 0.30880  0.41280  0.70520  Biso   1.000  C 
  C18      1.0000 0.69120  0.41280  0.79480  Biso   1.000  C 
  C19      1.0000 0.80880  0.91280  0.70520  Biso   1.000  C 
  C20      1.0000 0.19120  0.91280  0.79480  Biso   1.000  C 
  C21      1.0000 0.69120  0.58720  0.29480  Biso   1.000  C 
  C22      1.0000 0.30880  0.58720  0.20520  Biso   1.000  C 
  C23      1.0000 0.19120  0.08720  0.29480  Biso   1.000  C 
  C24      1.0000 0.80880  0.08720  0.20520  Biso   1.000  C 
  C25      1.0000 0.20390  0.48730  0.80060  Biso   1.000  C 
  C26      1.0000 0.79610  0.48730  0.69940  Biso   1.000  C 
  C27      1.0000 0.70390  0.98730  0.80060  Biso   1.000  C 
  C28      1.0000 0.29610  0.98730  0.69940  Biso   1.000  C 
  C29      1.0000 0.79610  0.51270  0.19940  Biso   1.000  C 
  C30      1.0000 0.20390  0.51270  0.30060  Biso   1.000  C 
  C31      1.0000 0.29610  0.01270  0.19940  Biso   1.000  C 
  C32      1.0000 0.70390  0.01270  0.30060  Biso   1.000  C 
  O1       1.0000 0.06680  0.46993  0.67310  Biso   1.000  O 
  O2       1.0000 0.93320  0.46993  0.82690  Biso   1.000  O 
  O3       1.0000 0.56680  0.96993  0.67310  Biso   1.000  O 
  O4       1.0000 0.43320  0.96993  0.82690  Biso   1.000  O 
  O5       1.0000 0.93320  0.53007  0.32690  Biso   1.000  O 
  O6       1.0000 0.06680  0.53007  0.17310  Biso   1.000  O 
  O7       1.0000 0.43320  0.03007  0.32690  Biso   1.000  O 
  O8       1.0000 0.56680  0.03007  0.17310  Biso   1.000  O 
  C33      1.0000 0.35730  0.44240  0.79730  Biso   1.000  C 
  C34      1.0000 0.64270  0.44240  0.70270  Biso   1.000  C 
  C35      1.0000 0.85730  0.94240  0.79730  Biso   1.000  C 
  C36      1.0000 0.14270  0.94240  0.70270  Biso   1.000  C 
  C37      1.0000 0.64270  0.55760  0.20270  Biso   1.000  C 
  C38      1.0000 0.35730  0.55760  0.29730  Biso   1.000  C 
  C39      1.0000 0.14270  0.05760  0.20270  Biso   1.000  C 
  C40      1.0000 0.85730  0.05760  0.29730  Biso   1.000  C 
  O9       1.0000 0.36520  0.38024  0.67300  Biso   1.000  O 
  O10      1.0000 0.63480  0.38024  0.82700  Biso   1.000  O 
  O11      1.0000 0.86520  0.88024  0.67300  Biso   1.000  O 
  O12      1.0000 0.13480  0.88024  0.82700  Biso   1.000  O 
  O13      1.0000 0.63480  0.61976  0.32700  Biso   1.000  O 
  O14      1.0000 0.36520  0.61976  0.17300  Biso   1.000  O 
  O15      1.0000 0.13480  0.11976  0.32700  Biso   1.000  O 
  O16      1.0000 0.86520  0.11976  0.17300  Biso   1.000  O 
  C41      1.0000 0.30280  0.47630  0.84190  Biso   1.000  C 
  C42      1.0000 0.69720  0.47630  0.65810  Biso   1.000  C 
  C43      1.0000 0.80280  0.97630  0.84190  Biso   1.000  C 
  C44      1.0000 0.19720  0.97630  0.65810  Biso   1.000  C 
  C45      1.0000 0.69720  0.52370  0.15810  Biso   1.000  C 
  C46      1.0000 0.30280  0.52370  0.34190  Biso   1.000  C 
  C47      1.0000 0.19720  0.02370  0.15810  Biso   1.000  C 
  C48      1.0000 0.80280  0.02370  0.34190  Biso   1.000  C 
  O17      1.0000 0.14900  0.51861  0.83260  Biso   1.000  O 
  O18      1.0000 0.85100  0.51861  0.66740  Biso   1.000  O 
  O19      1.0000 0.64900  0.01861  0.83260  Biso   1.000  O 
  O20      1.0000 0.35100  0.01861  0.66740  Biso   1.000  O 
  O21      1.0000 0.85100  0.48139  0.16740  Biso   1.000  O 
  O22      1.0000 0.14900  0.48139  0.33260  Biso   1.000  O 
  O23      1.0000 0.35100  0.98139  0.16740  Biso   1.000  O 
  O24      1.0000 0.64900  0.98139  0.33260  Biso   1.000  O 
  Mn1      1.0000 0.00000  0.53113  0.75000  Biso   1.000  Mn
  Mn2      1.0000 0.50000  0.03113  0.75000  Biso   1.000  Mn
  Mn3      1.0000 0.00000  0.46887  0.25000  Biso   1.000  Mn
  Mn4      1.0000 0.50000  0.96887  0.25000  Biso   1.000  Mn
  O25      1.0000 0.44890  0.43246  0.82580  Biso   1.000  O 
  O26      1.0000 0.55110  0.43246  0.67420  Biso   1.000  O 
  O27      1.0000 0.94890  0.93246  0.82580  Biso   1.000  O 
  O28      1.0000 0.05110  0.93246  0.67420  Biso   1.000  O 
  O29      1.0000 0.55110  0.56754  0.17420  Biso   1.000  O 
  O30      1.0000 0.44890  0.56754  0.32580  Biso   1.000  O 
  O31      1.0000 0.05110  0.06754  0.17420  Biso   1.000  O 
  O32      1.0000 0.94890  0.06754  0.32580  Biso   1.000  O 
  Cr1      1.0000 0.50000  0.37540  0.75000  Biso   1.000  Cr
  Cr2      1.0000 0.00000  0.87540  0.75000  Biso   1.000  Cr
  Cr3      1.0000 0.50000  0.62460  0.25000  Biso   1.000  Cr
  Cr4      1.0000 0.00000  0.12460  0.25000  Biso   1.000  Cr
  Br9      1.0000 0.35926  0.50926  0.95839  Biso   1.000  Br
  Br10     1.0000 0.64074  0.50926  0.54161  Biso   1.000  Br
  Br11     1.0000 0.85926  0.00926  0.95839  Biso   1.000  Br
  Br12     1.0000 0.14074  0.00926  0.54161  Biso   1.000  Br
  Br13     1.0000 0.64074  0.49074  0.04161  Biso   1.000  Br
  Br14     1.0000 0.35926  0.49074  0.45839  Biso   1.000  Br
  Br15     1.0000 0.14074  0.99074  0.04161  Biso   1.000  Br
  Br16     1.0000 0.85926  0.99074  0.45839  Biso   1.000  Br
  O33      1.0000 0.01590  0.60695  0.66720  Biso   1.000  O 
  O34      1.0000 0.98410  0.60695  0.83280  Biso   1.000  O 
  O35      1.0000 0.51590  0.10695  0.66720  Biso   1.000  O 
  O36      1.0000 0.48410  0.10695  0.83280  Biso   1.000  O 
  O37      1.0000 0.98410  0.39305  0.33280  Biso   1.000  O 
  O38      1.0000 0.01590  0.39305  0.16720  Biso   1.000  O 
  O39      1.0000 0.48410  0.89305  0.33280  Biso   1.000  O 
  O40      1.0000 0.51590  0.89305  0.16720  Biso   1.000  O 
  O41      1.0000 0.53020  0.31075  0.67480  Biso   1.000  O 
  O42      1.0000 0.46980  0.31075  0.82520  Biso   1.000  O 
  O43      1.0000 0.03020  0.81075  0.67480  Biso   1.000  O 
  O44      1.0000 0.96980  0.81075  0.82520  Biso   1.000  O 
  O45      1.0000 0.46980  0.68925  0.32520  Biso   1.000  O 
  O46      1.0000 0.53020  0.68925  0.17480  Biso   1.000  O 
  O47      1.0000 0.96980  0.18925  0.32520  Biso   1.000  O 
  O48      1.0000 0.03020  0.18925  0.17480  Biso   1.000  O 
  C49      1.0000 0.51590  0.26000  0.70440  Biso   1.000  C 
  C50      1.0000 0.48410  0.26000  0.79560  Biso   1.000  C 
  C51      1.0000 0.01590  0.76000  0.70440  Biso   1.000  C 
  C52      1.0000 0.98410  0.76000  0.79560  Biso   1.000  C 
  C53      1.0000 0.48410  0.74000  0.29560  Biso   1.000  C 
  C54      1.0000 0.51590  0.74000  0.20440  Biso   1.000  C 
  C55      1.0000 0.98410  0.24000  0.29560  Biso   1.000  C 
  C56      1.0000 0.01590  0.24000  0.20440  Biso   1.000  C 
  C57      1.0000 0.52780  0.20860  0.66200  Biso   1.000  C 
  C58      1.0000 0.47220  0.20860  0.83800  Biso   1.000  C 
  C59      1.0000 0.02780  0.70860  0.66200  Biso   1.000  C 
  C60      1.0000 0.97220  0.70860  0.83800  Biso   1.000  C 
  C61      1.0000 0.47220  0.79140  0.33800  Biso   1.000  C 
  C62      1.0000 0.52780  0.79140  0.16200  Biso   1.000  C 
  C63      1.0000 0.97220  0.29140  0.33800  Biso   1.000  C 
  C64      1.0000 0.02780  0.29140  0.16200  Biso   1.000  C 
  Br17     1.0000 0.55966  0.20964  0.54628  Biso   1.000  Br
  Br18     1.0000 0.44034  0.20964  0.95372  Biso   1.000  Br
  Br19     1.0000 0.05966  0.70964  0.54628  Biso   1.000  Br
  Br20     1.0000 0.94034  0.70964  0.95372  Biso   1.000  Br
  Br21     1.0000 0.44034  0.79036  0.45372  Biso   1.000  Br
  Br22     1.0000 0.55966  0.79036  0.04628  Biso   1.000  Br
  Br23     1.0000 0.94034  0.29036  0.45372  Biso   1.000  Br
  Br24     1.0000 0.05966  0.29036  0.04628  Biso   1.000  Br
  C65      1.0000 0.51110  0.15520  0.70150  Biso   1.000  C 
  C66      1.0000 0.48890  0.15520  0.79850  Biso   1.000  C 
  C67      1.0000 0.01110  0.65520  0.70150  Biso   1.000  C 
  C68      1.0000 0.98890  0.65520  0.79850  Biso   1.000  C 
  C69      1.0000 0.48890  0.84480  0.29850  Biso   1.000  C 
  C70      1.0000 0.51110  0.84480  0.20150  Biso   1.000  C 
  C71      1.0000 0.98890  0.34480  0.29850  Biso   1.000  C 
  C72      1.0000 0.01110  0.34480  0.20150  Biso   1.000  C 
  C73      1.0000 0.83220  0.72370  0.18100  Biso   1.000  C 
  C74      1.0000 0.16780  0.72370  0.31900  Biso   1.000  C 
  C75      1.0000 0.33220  0.22370  0.18100  Biso   1.000  C 
  C76      1.0000 0.66780  0.22370  0.31900  Biso   1.000  C 
  C77      1.0000 0.16780  0.27630  0.81900  Biso   1.000  C 
  C78      1.0000 0.83220  0.27630  0.68100  Biso   1.000  C 
  C79      1.0000 0.66780  0.77630  0.81900  Biso   1.000  C 
  C80      1.0000 0.33220  0.77630  0.68100  Biso   1.000  C 
  C81      1.0000 0.78920  0.73800  0.24910  Biso   1.000  C 
  C82      1.0000 0.21080  0.73800  0.25090  Biso   1.000  C 
  C83      1.0000 0.28920  0.23800  0.24910  Biso   1.000  C 
  C84      1.0000 0.71080  0.23800  0.25090  Biso   1.000  C 
  C85      1.0000 0.21080  0.26200  0.75090  Biso   1.000  C 
  C86      1.0000 0.78920  0.26200  0.74910  Biso   1.000  C 
  C87      1.0000 0.71080  0.76200  0.75090  Biso   1.000  C 
  C88      1.0000 0.28920  0.76200  0.74910  Biso   1.000  C 
  H1       1.0000 0.72730  0.72110  0.24580  Biso   1.000  H 
  H2       1.0000 0.27270  0.72110  0.25420  Biso   1.000  H 
  H3       1.0000 0.22730  0.22110  0.24580  Biso   1.000  H 
  H4       1.0000 0.77270  0.22110  0.25420  Biso   1.000  H 
  H5       1.0000 0.27270  0.27890  0.75420  Biso   1.000  H 
  H6       1.0000 0.72730  0.27890  0.74580  Biso   1.000  H 
  H7       1.0000 0.77270  0.77890  0.75420  Biso   1.000  H 
  H8       1.0000 0.22730  0.77890  0.74580  Biso   1.000  H 
  C89      1.0000 0.82560  0.77490  0.32400  Biso   1.000  C 
  C90      1.0000 0.17440  0.77490  0.17600  Biso   1.000  C 
  C91      1.0000 0.32560  0.27490  0.32400  Biso   1.000  C 
  C92      1.0000 0.67440  0.27490  0.17600  Biso   1.000  C 
  C93      1.0000 0.17440  0.22510  0.67600  Biso   1.000  C 
  C94      1.0000 0.82560  0.22510  0.82400  Biso   1.000  C 
  C95      1.0000 0.67440  0.72510  0.67600  Biso   1.000  C 
  C96      1.0000 0.32560  0.72510  0.82400  Biso   1.000  C 
  C97      1.0000 0.94420  0.83620  0.42230  Biso   1.000  C 
  C98      1.0000 0.05580  0.83620  0.07770  Biso   1.000  C 
  C99      1.0000 0.44420  0.33620  0.42230  Biso   1.000  C 
  C100     1.0000 0.55580  0.33620  0.07770  Biso   1.000  C 
  C101     1.0000 0.05580  0.16380  0.57770  Biso   1.000  C 
  C102     1.0000 0.94420  0.16380  0.92230  Biso   1.000  C 
  C103     1.0000 0.55580  0.66380  0.57770  Biso   1.000  C 
  C104     1.0000 0.44420  0.66380  0.92230  Biso   1.000  C 
  H9       1.0000 0.94050  0.81360  0.47790  Biso   1.000  H 
  H10      1.0000 0.05950  0.81360  0.02210  Biso   1.000  H 
  H11      1.0000 0.44050  0.31360  0.47790  Biso   1.000  H 
  H12      1.0000 0.55950  0.31360  0.02210  Biso   1.000  H 
  H13      1.0000 0.05950  0.18640  0.52210  Biso   1.000  H 
  H14      1.0000 0.94050  0.18640  0.97790  Biso   1.000  H 
  H15      1.0000 0.55950  0.68640  0.52210  Biso   1.000  H 
  H16      1.0000 0.44050  0.68640  0.97790  Biso   1.000  H 
  H17      1.0000 0.90230  0.87090  0.41890  Biso   1.000  H 
  H18      1.0000 0.09770  0.87090  0.08110  Biso   1.000  H 
  H19      1.0000 0.40230  0.37090  0.41890  Biso   1.000  H 
  H20      1.0000 0.59770  0.37090  0.08110  Biso   1.000  H 
  H21      1.0000 0.09770  0.12910  0.58110  Biso   1.000  H 
  H22      1.0000 0.90230  0.12910  0.91890  Biso   1.000  H 
  H23      1.0000 0.59770  0.62910  0.58110  Biso   1.000  H 
  H24      1.0000 0.40230  0.62910  0.91890  Biso   1.000  H 
  C105     1.0000 0.04810  0.85430  0.42910  Biso   1.000  C 
  C106     1.0000 0.95190  0.85430  0.07090  Biso   1.000  C 
  C107     1.0000 0.54810  0.35430  0.42910  Biso   1.000  C 
  C108     1.0000 0.45190  0.35430  0.07090  Biso   1.000  C 
  C109     1.0000 0.95190  0.14570  0.57090  Biso   1.000  C 
  C110     1.0000 0.04810  0.14570  0.92910  Biso   1.000  C 
  C111     1.0000 0.45190  0.64570  0.57090  Biso   1.000  C 
  C112     1.0000 0.54810  0.64570  0.92910  Biso   1.000  C 
  H25      1.0000 0.06450  0.88800  0.47110  Biso   1.000  H 
  H26      1.0000 0.93550  0.88800  0.02890  Biso   1.000  H 
  H27      1.0000 0.56450  0.38800  0.47110  Biso   1.000  H 
  H28      1.0000 0.43550  0.38800  0.02890  Biso   1.000  H 
  H29      1.0000 0.93550  0.11200  0.52890  Biso   1.000  H 
  H30      1.0000 0.06450  0.11200  0.97110  Biso   1.000  H 
  H31      1.0000 0.43550  0.61200  0.52890  Biso   1.000  H 
  H32      1.0000 0.56450  0.61200  0.97110  Biso   1.000  H 
  H33      1.0000 0.09260  0.82210  0.45570  Biso   1.000  H 
  H34      1.0000 0.90740  0.82210  0.04430  Biso   1.000  H 
  H35      1.0000 0.59260  0.32210  0.45570  Biso   1.000  H 
  H36      1.0000 0.40740  0.32210  0.04430  Biso   1.000  H 
  H37      1.0000 0.90740  0.17790  0.54430  Biso   1.000  H 
  H38      1.0000 0.09260  0.17790  0.95570  Biso   1.000  H 
  H39      1.0000 0.40740  0.67790  0.54430  Biso   1.000  H 
  H40      1.0000 0.59260  0.67790  0.95570  Biso   1.000  H 
  C113     1.0000 0.01040  0.92370  0.30050  Biso   1.000  C 
  C114     1.0000 0.98960  0.92370  0.19950  Biso   1.000  C 
  C115     1.0000 0.51040  0.42370  0.30050  Biso   1.000  C 
  C116     1.0000 0.48960  0.42370  0.19950  Biso   1.000  C 
  C117     1.0000 0.98960  0.07630  0.69950  Biso   1.000  C 
  C118     1.0000 0.01040  0.07630  0.80050  Biso   1.000  C 
  C119     1.0000 0.48960  0.57630  0.69950  Biso   1.000  C 
  C120     1.0000 0.51040  0.57630  0.80050  Biso   1.000  C 
  H41      1.0000 0.94880  0.92680  0.32030  Biso   1.000  H 
  H42      1.0000 0.05120  0.92680  0.17970  Biso   1.000  H 
  H43      1.0000 0.44880  0.42680  0.32030  Biso   1.000  H 
  H44      1.0000 0.55120  0.42680  0.17970  Biso   1.000  H 
  H45      1.0000 0.05120  0.07320  0.67970  Biso   1.000  H 
  H46      1.0000 0.94880  0.07320  0.82030  Biso   1.000  H 
  H47      1.0000 0.55120  0.57320  0.67970  Biso   1.000  H 
  H48      1.0000 0.44880  0.57320  0.82030  Biso   1.000  H 
  H49      1.0000 0.05160  0.95750  0.32550  Biso   1.000  H 
  H50      1.0000 0.94840  0.95750  0.17450  Biso   1.000  H 
  H51      1.0000 0.55160  0.45750  0.32550  Biso   1.000  H 
  H52      1.0000 0.44840  0.45750  0.17450  Biso   1.000  H 
  H53      1.0000 0.94840  0.04250  0.67450  Biso   1.000  H 
  H54      1.0000 0.05160  0.04250  0.82550  Biso   1.000  H 
  H55      1.0000 0.44840  0.54250  0.67450  Biso   1.000  H 
  H56      1.0000 0.55160  0.54250  0.82550  Biso   1.000  H 
  C121     1.0000 0.78510  0.68080  0.10870  Biso   1.000  C 
  C122     1.0000 0.21490  0.68080  0.39130  Biso   1.000  C 
  C123     1.0000 0.28510  0.18080  0.10870  Biso   1.000  C 
  C124     1.0000 0.71490  0.18080  0.39130  Biso   1.000  C 
  C125     1.0000 0.21490  0.31920  0.89130  Biso   1.000  C 
  C126     1.0000 0.78510  0.31920  0.60870  Biso   1.000  C 
  C127     1.0000 0.71490  0.81920  0.89130  Biso   1.000  C 
  C128     1.0000 0.28510  0.81920  0.60870  Biso   1.000  C 
  H57      1.0000 0.82540  0.67570  0.06440  Biso   1.000  H 
  H58      1.0000 0.17460  0.67570  0.43560  Biso   1.000  H 
  H59      1.0000 0.32540  0.17570  0.06440  Biso   1.000  H 
  H60      1.0000 0.67460  0.17570  0.43560  Biso   1.000  H 
  H61      1.0000 0.17460  0.32430  0.93560  Biso   1.000  H 
  H62      1.0000 0.82540  0.32430  0.56440  Biso   1.000  H 
  H63      1.0000 0.67460  0.82430  0.93560  Biso   1.000  H 
  H64      1.0000 0.32540  0.82430  0.56440  Biso   1.000  H 
  H65      1.0000 0.72050  0.69490  0.07590  Biso   1.000  H 
  H66      1.0000 0.27950  0.69490  0.42410  Biso   1.000  H 
  H67      1.0000 0.22050  0.19490  0.07590  Biso   1.000  H 
  H68      1.0000 0.77950  0.19490  0.42410  Biso   1.000  H 
  H69      1.0000 0.27950  0.30510  0.92410  Biso   1.000  H 
  H70      1.0000 0.72050  0.30510  0.57590  Biso   1.000  H 
  H71      1.0000 0.77950  0.80510  0.92410  Biso   1.000  H 
  H72      1.0000 0.22050  0.80510  0.57590  Biso   1.000  H 
  H73      1.0000 0.77840  0.64360  0.13830  Biso   1.000  H 
  H74      1.0000 0.22160  0.64360  0.36170  Biso   1.000  H 
  H75      1.0000 0.27840  0.14360  0.13830  Biso   1.000  H 
  H76      1.0000 0.72160  0.14360  0.36170  Biso   1.000  H 
  H77      1.0000 0.22160  0.35640  0.86170  Biso   1.000  H 
  H78      1.0000 0.77840  0.35640  0.63830  Biso   1.000  H 
  H79      1.0000 0.72160  0.85640  0.86170  Biso   1.000  H 
  H80      1.0000 0.27840  0.85640  0.63830  Biso   1.000  H 
  C129     1.0000 0.76330  0.78530  0.39260  Biso   1.000  C 
  C130     1.0000 0.23670  0.78530  0.10740  Biso   1.000  C 
  C131     1.0000 0.26330  0.28530  0.39260  Biso   1.000  C 
  C132     1.0000 0.73670  0.28530  0.10740  Biso   1.000  C 
  C133     1.0000 0.23670  0.21470  0.60740  Biso   1.000  C 
  C134     1.0000 0.76330  0.21470  0.89260  Biso   1.000  C 
  C135     1.0000 0.73670  0.71470  0.60740  Biso   1.000  C 
  C136     1.0000 0.26330  0.71470  0.89260  Biso   1.000  C 
  H81      1.0000 0.79740  0.81180  0.44140  Biso   1.000  H 
  H82      1.0000 0.20260  0.81180  0.05860  Biso   1.000  H 
  H83      1.0000 0.29740  0.31180  0.44140  Biso   1.000  H 
  H84      1.0000 0.70260  0.31180  0.05860  Biso   1.000  H 
  H85      1.0000 0.20260  0.18820  0.55860  Biso   1.000  H 
  H86      1.0000 0.79740  0.18820  0.94140  Biso   1.000  H 
  H87      1.0000 0.70260  0.68820  0.55860  Biso   1.000  H 
  H88      1.0000 0.29740  0.68820  0.94140  Biso   1.000  H 
  H89      1.0000 0.75150  0.74840  0.42060  Biso   1.000  H 
  H90      1.0000 0.24850  0.74840  0.07940  Biso   1.000  H 
  H91      1.0000 0.25150  0.24840  0.42060  Biso   1.000  H 
  H92      1.0000 0.74850  0.24840  0.07940  Biso   1.000  H 
  H93      1.0000 0.24850  0.25160  0.57940  Biso   1.000  H 
  H94      1.0000 0.75150  0.25160  0.92060  Biso   1.000  H 
  H95      1.0000 0.74850  0.75160  0.57940  Biso   1.000  H 
  H96      1.0000 0.25150  0.75160  0.92060  Biso   1.000  H 
  H97      1.0000 0.70090  0.80250  0.36000  Biso   1.000  H 
  H98      1.0000 0.29910  0.80250  0.14000  Biso   1.000  H 
  H99      1.0000 0.20090  0.30250  0.36000  Biso   1.000  H 
  H100     1.0000 0.79910  0.30250  0.14000  Biso   1.000  H 
  H101     1.0000 0.29910  0.19750  0.64000  Biso   1.000  H 
  H102     1.0000 0.70090  0.19750  0.86000  Biso   1.000  H 
  H103     1.0000 0.79910  0.69750  0.64000  Biso   1.000  H 
  H104     1.0000 0.20090  0.69750  0.86000  Biso   1.000  H 
  N1       1.0000 0.91040  0.80070  0.33850  Biso   1.000  N 
  N2       1.0000 0.08960  0.80070  0.16150  Biso   1.000  N 
  N3       1.0000 0.41040  0.30070  0.33850  Biso   1.000  N 
  N4       1.0000 0.58960  0.30070  0.16150  Biso   1.000  N 
  N5       1.0000 0.08960  0.19930  0.66150  Biso   1.000  N 
  N6       1.0000 0.91040  0.19930  0.83850  Biso   1.000  N 
  N7       1.0000 0.58960  0.69930  0.66150  Biso   1.000  N 
  N8       1.0000 0.41040  0.69930  0.83850  Biso   1.000  N 
  N9       1.0000 0.06170  0.86940  0.33760  Biso   1.000  N 
  N10      1.0000 0.93830  0.86940  0.16240  Biso   1.000  N 
  N11      1.0000 0.56170  0.36940  0.33760  Biso   1.000  N 
  N12      1.0000 0.43830  0.36940  0.16240  Biso   1.000  N 
  N13      1.0000 0.93830  0.13060  0.66240  Biso   1.000  N 
  N14      1.0000 0.06170  0.13060  0.83760  Biso   1.000  N 
  N15      1.0000 0.43830  0.63060  0.66240  Biso   1.000  N 
  N16      1.0000 0.56170  0.63060  0.83760  Biso   1.000  N 
  H105     1.0000 0.13280  0.87290  0.34040  Biso   1.000  H 
  H106     1.0000 0.86720  0.87290  0.15960  Biso   1.000  H 
  H107     1.0000 0.63280  0.37290  0.34040  Biso   1.000  H 
  H108     1.0000 0.36720  0.37290  0.15960  Biso   1.000  H 
  H109     1.0000 0.86720  0.12710  0.65960  Biso   1.000  H 
  H110     1.0000 0.13280  0.12710  0.84040  Biso   1.000  H 
  H111     1.0000 0.36720  0.62710  0.65960  Biso   1.000  H 
  H112     1.0000 0.63280  0.62710  0.84040  Biso   1.000  H 
  O49      1.0000 0.91420  0.74330  0.16990  Biso   1.000  O 
  O50      1.0000 0.08580  0.74330  0.33010  Biso   1.000  O 
  O51      1.0000 0.41420  0.24330  0.16990  Biso   1.000  O 
  O52      1.0000 0.58580  0.24330  0.33010  Biso   1.000  O 
  O53      1.0000 0.08580  0.25670  0.83010  Biso   1.000  O 
  O54      1.0000 0.91420  0.25670  0.66990  Biso   1.000  O 
  O55      1.0000 0.58580  0.75670  0.83010  Biso   1.000  O 
  O56      1.0000 0.41420  0.75670  0.66990  Biso   1.000  O 
  Ga1      1.0000 0.00000  0.79845  0.25000  Biso   1.000  Ga
  Ga2      1.0000 0.50000  0.29845  0.25000  Biso   1.000  Ga
  Ga3      1.0000 0.00000  0.20155  0.75000  Biso   1.000  Ga
  Ga4      1.0000 0.50000  0.70155  0.75000  Biso   1.000  Ga
  C137     1.0000 0.38950  0.94760  0.48980  Biso   1.000  C 
  C138     1.0000 0.61050  0.94760  0.01020  Biso   1.000  C 
  C139     1.0000 0.88950  0.44760  0.48980  Biso   1.000  C 
  C140     1.0000 0.11050  0.44760  0.01020  Biso   1.000  C 
  C141     1.0000 0.61050  0.05240  0.51020  Biso   1.000  C 
  C142     1.0000 0.38950  0.05240  0.98980  Biso   1.000  C 
  C143     1.0000 0.11050  0.55240  0.51020  Biso   1.000  C 
  C144     1.0000 0.88950  0.55240  0.98980  Biso   1.000  C 
  H113     1.0000 0.44900  0.92570  0.49110  Biso   1.000  H 
  H114     1.0000 0.55100  0.92570  0.00890  Biso   1.000  H 
  H115     1.0000 0.94900  0.42570  0.49110  Biso   1.000  H 
  H116     1.0000 0.05100  0.42570  0.00890  Biso   1.000  H 
  H117     1.0000 0.55100  0.07430  0.50890  Biso   1.000  H 
  H118     1.0000 0.44900  0.07430  0.99110  Biso   1.000  H 
  H119     1.0000 0.05100  0.57430  0.50890  Biso   1.000  H 
  H120     1.0000 0.94900  0.57430  0.99110  Biso   1.000  H 
  H121     1.0000 0.36770  0.93950  0.54620  Biso   1.000  H 
  H122     1.0000 0.63230  0.93950  0.95380  Biso   1.000  H 
  H123     1.0000 0.86770  0.43950  0.54620  Biso   1.000  H 
  H124     1.0000 0.13230  0.43950  0.95380  Biso   1.000  H 
  H125     1.0000 0.63230  0.06050  0.45380  Biso   1.000  H 
  H126     1.0000 0.36770  0.06050  0.04620  Biso   1.000  H 
  H127     1.0000 0.13230  0.56050  0.45380  Biso   1.000  H 
  H128     1.0000 0.86770  0.56050  0.04620  Biso   1.000  H 
  H129     1.0000 0.40270  0.98920  0.48660  Biso   1.000  H 
  H130     1.0000 0.59730  0.98920  0.01340  Biso   1.000  H 
  H131     1.0000 0.90270  0.48920  0.48660  Biso   1.000  H 
  H132     1.0000 0.09730  0.48920  0.01340  Biso   1.000  H 
  H133     1.0000 0.59730  0.01080  0.51340  Biso   1.000  H 
  H134     1.0000 0.40270  0.01080  0.98660  Biso   1.000  H 
  H135     1.0000 0.09730  0.51080  0.51340  Biso   1.000  H 
  H136     1.0000 0.90270  0.51080  0.98660  Biso   1.000  H 
  C145     1.0000 0.31400  0.93080  0.40920  Biso   1.000  C 
  C146     1.0000 0.68600  0.93080  0.09080  Biso   1.000  C 
  C147     1.0000 0.81400  0.43080  0.40920  Biso   1.000  C 
  C148     1.0000 0.18600  0.43080  0.09080  Biso   1.000  C 
  C149     1.0000 0.68600  0.06920  0.59080  Biso   1.000  C 
  C150     1.0000 0.31400  0.06920  0.90920  Biso   1.000  C 
  C151     1.0000 0.18600  0.56920  0.59080  Biso   1.000  C 
  C152     1.0000 0.81400  0.56920  0.90920  Biso   1.000  C 
  N17      1.0000 0.25510  0.91860  0.34420  Biso   1.000  N 
  N18      1.0000 0.74490  0.91860  0.15580  Biso   1.000  N 
  N19      1.0000 0.75510  0.41860  0.34420  Biso   1.000  N 
  N20      1.0000 0.24490  0.41860  0.15580  Biso   1.000  N 
  N21      1.0000 0.74490  0.08140  0.65580  Biso   1.000  N 
  N22      1.0000 0.25510  0.08140  0.84420  Biso   1.000  N 
  N23      1.0000 0.24490  0.58140  0.65580  Biso   1.000  N 
  N24      1.0000 0.75510  0.58140  0.84420  Biso   1.000  N 
