data_image0
_cell_length_a       12.972
_cell_length_b       22.296
_cell_length_c       12.988
_cell_angle_alpha    90
_cell_angle_beta     109.376
_cell_angle_gamma    90

_symmetry_space_group_name_H-M    "P 1"
_symmetry_int_tables_number       1

loop_
  _symmetry_equiv_pos_as_xyz
  'x, y, z'

loop_
  _atom_site_label
  _atom_site_occupancy
  _atom_site_fract_x
  _atom_site_fract_y
  _atom_site_fract_z
  _atom_site_thermal_displace_type
  _atom_site_B_iso_or_equiv
  _atom_site_type_symbol
  Zn1      1.0000 0.85318  0.21332  0.75248  Biso   1.000  Zn
  Zn2      1.0000 0.14682  0.71332  0.24752  Biso   1.000  Zn
  Zn3      1.0000 0.86644  0.08250  0.73759  Biso   1.000  Zn
  Zn4      1.0000 0.13356  0.58250  0.26241  Biso   1.000  Zn
  O1       1.0000 0.69410  0.19430  0.71960  Biso   1.000  O 
  O2       1.0000 0.30590  0.69430  0.28040  Biso   1.000  O 
  C1       1.0000 0.65270  0.13930  0.70470  Biso   1.000  C 
  C2       1.0000 0.34730  0.63930  0.29530  Biso   1.000  C 
  O3       1.0000 0.70150  0.09150  0.70400  Biso   1.000  O 
  O4       1.0000 0.29850  0.59150  0.29600  Biso   1.000  O 
  O5       1.0000 0.87460  0.18930  0.90930  Biso   1.000  O 
  O6       1.0000 0.12540  0.68930  0.09070  Biso   1.000  O 
  C3       1.0000 0.87720  0.13620  0.95050  Biso   1.000  C 
  C4       1.0000 0.12280  0.63620  0.04950  Biso   1.000  C 
  O7       1.0000 0.88390  0.09010  0.89520  Biso   1.000  O 
  O8       1.0000 0.11610  0.59010  0.10480  Biso   1.000  O 
  O9       1.0000 0.02070  0.20100  0.78710  Biso   1.000  O 
  O10      1.0000 0.97930  0.70100  0.21290  Biso   1.000  O 
  C5       1.0000 0.06650  0.15330  0.77230  Biso   1.000  C 
  C6       1.0000 0.93350  0.65330  0.22770  Biso   1.000  C 
  O11      1.0000 0.02810  0.10400  0.77170  Biso   1.000  O 
  O12      1.0000 0.97190  0.60400  0.22830  Biso   1.000  O 
  O13      1.0000 0.84070  0.20720  0.59670  Biso   1.000  O 
  O14      1.0000 0.15930  0.70720  0.40330  Biso   1.000  O 
  C7       1.0000 0.84890  0.15760  0.54810  Biso   1.000  C 
  C8       1.0000 0.15110  0.65760  0.45190  Biso   1.000  C 
  O15      1.0000 0.85160  0.10700  0.58510  Biso   1.000  O 
  O16      1.0000 0.14840  0.60700  0.41490  Biso   1.000  O 
  N1       1.0000 0.85330  0.30290  0.76620  Biso   1.000  N 
  N2       1.0000 0.14670  0.80290  0.23380  Biso   1.000  N 
  C9       1.0000 0.76000  0.33290  0.70130  Biso   1.000  C 
  C10      1.0000 0.24000  0.83290  0.29870  Biso   1.000  C 
  H1       1.0000 0.69640  0.31170  0.65940  Biso   1.000  H 
  H2       1.0000 0.30360  0.81170  0.34060  Biso   1.000  H 
  C11      1.0000 0.76410  0.39730  0.70040  Biso   1.000  C 
  C12      1.0000 0.23590  0.89730  0.29960  Biso   1.000  C 
  H3       1.0000 0.70470  0.41910  0.65210  Biso   1.000  H 
  H4       1.0000 0.29530  0.91910  0.34790  Biso   1.000  H 
  C13      1.0000 0.85370  0.42820  0.76890  Biso   1.000  C 
  C14      1.0000 0.14630  0.92820  0.23110  Biso   1.000  C 
  C15      1.0000 0.94230  0.39750  0.84050  Biso   1.000  C 
  C16      1.0000 0.05770  0.89750  0.15950  Biso   1.000  C 
  H5       1.0000 0.00260  0.41790  0.89040  Biso   1.000  H 
  H6       1.0000 0.99740  0.91790  0.10960  Biso   1.000  H 
  C17      1.0000 0.93700  0.33360  0.83430  Biso   1.000  C 
  C18      1.0000 0.06300  0.83360  0.16570  Biso   1.000  C 
  H7       1.0000 0.99660  0.31140  0.88150  Biso   1.000  H 
  H8       1.0000 0.00340  0.81140  0.11850  Biso   1.000  H 
  N3       1.0000 0.85440  0.48960  0.76480  Biso   1.000  N 
  N4       1.0000 0.14560  0.98960  0.23520  Biso   1.000  N 
  C19      1.0000 0.85940  0.52220  0.86450  Biso   1.000  C 
  C20      1.0000 0.14060  0.02220  0.13550  Biso   1.000  C 
  C21      1.0000 0.85710  0.58790  0.86070  Biso   1.000  C 
  C22      1.0000 0.14290  0.08790  0.13930  Biso   1.000  C 
  C23      1.0000 0.85970  0.62060  0.94730  Biso   1.000  C 
  C24      1.0000 0.14030  0.12060  0.05270  Biso   1.000  C 
  H9       1.0000 0.86330  0.60220  0.01430  Biso   1.000  H 
  H10      1.0000 0.13670  0.10220  0.98570  Biso   1.000  H 
  C25      1.0000 0.85710  0.68170  0.93630  Biso   1.000  C 
  C26      1.0000 0.14290  0.18170  0.06370  Biso   1.000  C 
  H11      1.0000 0.85010  0.70430  0.99560  Biso   1.000  H 
  H12      1.0000 0.14990  0.20430  0.00440  Biso   1.000  H 
  C27      1.0000 0.86390  0.71550  0.84330  Biso   1.000  C 
  C28      1.0000 0.13610  0.21550  0.15670  Biso   1.000  C 
  C29      1.0000 0.86480  0.77810  0.83710  Biso   1.000  C 
  C30      1.0000 0.13520  0.27810  0.16290  Biso   1.000  C 
  N5       1.0000 0.87290  0.80200  0.74890  Biso   1.000  N 
  N6       1.0000 0.12710  0.30200  0.25110  Biso   1.000  N 
  C31      1.0000 0.86880  0.77780  0.65730  Biso   1.000  C 
  C32      1.0000 0.13120  0.27780  0.34270  Biso   1.000  C 
  C33      1.0000 0.85870  0.70740  0.66090  Biso   1.000  C 
  C34      1.0000 0.14130  0.20740  0.33910  Biso   1.000  C 
  C35      1.0000 0.86440  0.67540  0.56710  Biso   1.000  C 
  C36      1.0000 0.13560  0.17540  0.43290  Biso   1.000  C 
  H13      1.0000 0.87490  0.69370  0.50520  Biso   1.000  H 
  H14      1.0000 0.12510  0.19370  0.49480  Biso   1.000  H 
  C37      1.0000 0.85200  0.61060  0.57980  Biso   1.000  C 
  C38      1.0000 0.14800  0.11060  0.42020  Biso   1.000  C 
  H15      1.0000 0.84030  0.58660  0.51650  Biso   1.000  H 
  H16      1.0000 0.15970  0.08660  0.48350  Biso   1.000  H 
  C39      1.0000 0.85510  0.58430  0.66360  Biso   1.000  C 
  C40      1.0000 0.14490  0.08430  0.33640  Biso   1.000  C 
  C41      1.0000 0.84800  0.51610  0.66300  Biso   1.000  C 
  C42      1.0000 0.15200  0.01610  0.33700  Biso   1.000  C 
  C43      1.0000 0.85360  0.61870  0.75600  Biso   1.000  C 
  C44      1.0000 0.14640  0.11870  0.24400  Biso   1.000  C 
  C45      1.0000 0.85670  0.68330  0.75940  Biso   1.000  C 
  C46      1.0000 0.14330  0.18330  0.24060  Biso   1.000  C 
  O17      1.0000 0.85010  0.49550  0.94870  Biso   1.000  O 
  O18      1.0000 0.14990  0.99550  0.05130  Biso   1.000  O 
  O19      1.0000 0.87190  0.81110  0.92540  Biso   1.000  O 
  O20      1.0000 0.12810  0.31110  0.07460  Biso   1.000  O 
  O21      1.0000 0.86380  0.79960  0.57390  Biso   1.000  O 
  O22      1.0000 0.13620  0.29960  0.42610  Biso   1.000  O 
  O23      1.0000 0.85240  0.48750  0.59410  Biso   1.000  O 
  O24      1.0000 0.14760  0.98750  0.40590  Biso   1.000  O 
  C47      1.0000 0.53670  0.13600  0.70800  Biso   1.000  C 
  C48      1.0000 0.46330  0.63600  0.29200  Biso   1.000  C 
  C49      1.0000 0.48860  0.07380  0.69810  Biso   1.000  C 
  C50      1.0000 0.51140  0.57380  0.30190  Biso   1.000  C 
  H17      1.0000 0.52690  0.04020  0.68400  Biso   1.000  H 
  H18      1.0000 0.47310  0.54020  0.31600  Biso   1.000  H 
  C51      1.0000 0.39090  0.06710  0.70960  Biso   1.000  C 
  C52      1.0000 0.60910  0.56710  0.29040  Biso   1.000  C 
  H19      1.0000 0.36020  0.02830  0.70810  Biso   1.000  H 
  H20      1.0000 0.63980  0.52830  0.29190  Biso   1.000  H 
  C53      1.0000 0.33080  0.12120  0.72480  Biso   1.000  C 
  C54      1.0000 0.66920  0.62120  0.27520  Biso   1.000  C 
  C55      1.0000 0.21960  0.11530  0.73200  Biso   1.000  C 
  C56      1.0000 0.78040  0.61530  0.26800  Biso   1.000  C 
  H21      1.0000 0.18310  0.07770  0.71740  Biso   1.000  H 
  H22      1.0000 0.81690  0.57770  0.28260  Biso   1.000  H 
  C57      1.0000 0.17050  0.16210  0.75860  Biso   1.000  C 
  C58      1.0000 0.82950  0.66210  0.24140  Biso   1.000  C 
  C59      1.0000 0.21660  0.21860  0.75230  Biso   1.000  C 
  C60      1.0000 0.78340  0.71860  0.24770  Biso   1.000  C 
  H23      1.0000 0.17700  0.25420  0.75450  Biso   1.000  H 
  H24      1.0000 0.82300  0.75420  0.24550  Biso   1.000  H 
  C61      1.0000 0.31390  0.22210  0.74330  Biso   1.000  C 
  C62      1.0000 0.68610  0.72210  0.25670  Biso   1.000  C 
  H25      1.0000 0.34420  0.26130  0.74910  Biso   1.000  H 
  H26      1.0000 0.65580  0.76130  0.25090  Biso   1.000  H 
  C63      1.0000 0.37590  0.17840  0.72730  Biso   1.000  C 
  C64      1.0000 0.62410  0.67840  0.27270  Biso   1.000  C 
  C65      1.0000 0.48060  0.18400  0.72180  Biso   1.000  C 
  C66      1.0000 0.51940  0.68400  0.27820  Biso   1.000  C 
  H27      1.0000 0.51300  0.22260  0.72790  Biso   1.000  H 
  H28      1.0000 0.48700  0.72260  0.27210  Biso   1.000  H 
  C67      1.0000 0.86990  0.13050  0.05520  Biso   1.000  C 
  C68      1.0000 0.13010  0.63050  0.94480  Biso   1.000  C 
  C69      1.0000 0.87400  0.07380  0.10360  Biso   1.000  C 
  C70      1.0000 0.12600  0.57380  0.89640  Biso   1.000  C 
  H29      1.0000 0.88340  0.03900  0.06550  Biso   1.000  H 
  H30      1.0000 0.11660  0.53900  0.93450  Biso   1.000  H 
  C71      1.0000 0.86490  0.06830  0.20380  Biso   1.000  C 
  C72      1.0000 0.13510  0.56830  0.79620  Biso   1.000  C 
  H31      1.0000 0.86200  0.02910  0.23170  Biso   1.000  H 
  H32      1.0000 0.13800  0.52910  0.76830  Biso   1.000  H 
  C73      1.0000 0.85940  0.11800  0.26860  Biso   1.000  C 
  C74      1.0000 0.14060  0.61800  0.73140  Biso   1.000  C 
  C75      1.0000 0.85230  0.11550  0.36980  Biso   1.000  C 
  C76      1.0000 0.14770  0.61550  0.63020  Biso   1.000  C 
  H33      1.0000 0.84760  0.07680  0.39840  Biso   1.000  H 
  H34      1.0000 0.15240  0.57680  0.60160  Biso   1.000  H 
  C77      1.0000 0.85110  0.16340  0.43510  Biso   1.000  C 
  C78      1.0000 0.14890  0.66340  0.56490  Biso   1.000  C 
  C79      1.0000 0.85090  0.21890  0.38920  Biso   1.000  C 
  C80      1.0000 0.14910  0.71890  0.61080  Biso   1.000  C 
  H35      1.0000 0.85320  0.25340  0.43280  Biso   1.000  H 
  H36      1.0000 0.14680  0.75340  0.56720  Biso   1.000  H 
  C81      1.0000 0.84740  0.22710  0.28210  Biso   1.000  C 
  C82      1.0000 0.15260  0.72710  0.71790  Biso   1.000  C 
  H37      1.0000 0.83850  0.26620  0.25130  Biso   1.000  H 
  H38      1.0000 0.16150  0.76620  0.74870  Biso   1.000  H 
  C83      1.0000 0.85730  0.17670  0.21830  Biso   1.000  C 
  C84      1.0000 0.14270  0.67670  0.78170  Biso   1.000  C 
  C85      1.0000 0.86030  0.18140  0.11500  Biso   1.000  C 
  C86      1.0000 0.13970  0.68140  0.88500  Biso   1.000  C 
  H39      1.0000 0.85580  0.21990  0.08250  Biso   1.000  H 
  H40      1.0000 0.14420  0.71990  0.91750  Biso   1.000  H 
  N7       1.0000 0.87210  0.99130  0.73970  Biso   1.000  N 
  N8       1.0000 0.12790  0.49130  0.26030  Biso   1.000  N 
  C87      1.0000 0.78450  0.95950  0.68020  Biso   1.000  C 
  C88      1.0000 0.21550  0.45950  0.31980  Biso   1.000  C 
  H41      1.0000 0.72100  0.98000  0.63600  Biso   1.000  H 
  H42      1.0000 0.27900  0.48000  0.36400  Biso   1.000  H 
  C89      1.0000 0.78540  0.89860  0.68220  Biso   1.000  C 
  C90      1.0000 0.21460  0.39860  0.31780  Biso   1.000  C 
  H43      1.0000 0.72320  0.87630  0.64030  Biso   1.000  H 
  H44      1.0000 0.27680  0.37630  0.35970  Biso   1.000  H 
  C91      1.0000 0.87490  0.87110  0.74390  Biso   1.000  C 
  C92      1.0000 0.12510  0.37110  0.25610  Biso   1.000  C 
  C93      1.0000 0.96090  0.90190  0.80970  Biso   1.000  C 
  C94      1.0000 0.03910  0.40190  0.19030  Biso   1.000  C 
  H45      1.0000 0.02420  0.88460  0.86070  Biso   1.000  H 
  H46      1.0000 0.97580  0.38460  0.13930  Biso   1.000  H 
  C95      1.0000 0.94200  0.96460  0.79070  Biso   1.000  C 
  C96      1.0000 0.05800  0.46460  0.20930  Biso   1.000  C 
  H47      1.0000 0.00270  0.98850  0.83060  Biso   1.000  H 
  H48      1.0000 0.99730  0.48850  0.16940  Biso   1.000  H 
  C97      1.0000 0.01510  0.90470  0.51930  Biso   1.000  C 
  C98      1.0000 0.98490  0.40470  0.48070  Biso   1.000  C 
  H49      1.0000 0.97840  0.88440  0.56640  Biso   1.000  H 
  H50      1.0000 0.02160  0.38440  0.43360  Biso   1.000  H 
  Cl1      1.0000 0.14610  0.92760  0.60210  Biso   1.000  Cl
  Cl2      1.0000 0.85390  0.42760  0.39790  Biso   1.000  Cl
  Cl3      1.0000 0.02360  0.85390  0.41990  Biso   1.000  Cl
  Cl4      1.0000 0.97640  0.35390  0.58010  Biso   1.000  Cl
  Cl5      1.0000 0.93770  0.96810  0.45900  Biso   1.000  Cl
  Cl6      1.0000 0.06230  0.46810  0.54100  Biso   1.000  Cl
  C99      1.0000 0.32640  0.40030  0.98070  Biso   1.000  C 
  C100     1.0000 0.67360  0.90030  0.01930  Biso   1.000  C 
  H51      1.0000 0.39630  0.41910  0.98050  Biso   1.000  H 
  H52      1.0000 0.60370  0.91910  0.01950  Biso   1.000  H 
  Cl7      1.0000 0.23110  0.40490  0.84800  Biso   1.000  Cl
  Cl8      1.0000 0.76890  0.90490  0.15200  Biso   1.000  Cl
  Cl9      1.0000 0.35220  0.32560  0.02160  Biso   1.000  Cl
  Cl10     1.0000 0.64780  0.82560  0.97840  Biso   1.000  Cl
  Cl11     1.0000 0.27720  0.44050  0.07120  Biso   1.000  Cl
  Cl12     1.0000 0.72280  0.94050  0.92880  Biso   1.000  Cl
