data_image0
_cell_length_a       10.0622
_cell_length_b       10.1156
_cell_length_c       14.264
_cell_angle_alpha    80.296
_cell_angle_beta     78.075
_cell_angle_gamma    69.771

_symmetry_space_group_name_H-M    "P 1"
_symmetry_int_tables_number       1

loop_
  _symmetry_equiv_pos_as_xyz
  'x, y, z'

loop_
  _atom_site_label
  _atom_site_occupancy
  _atom_site_fract_x
  _atom_site_fract_y
  _atom_site_fract_z
  _atom_site_thermal_displace_type
  _atom_site_B_iso_or_equiv
  _atom_site_type_symbol
  C1       1.0000 0.71830  0.10040  0.92230  Biso   1.000  C 
  C2       1.0000 0.77130  0.21440  0.93810  Biso   1.000  C 
  O1       1.0000 0.89180  0.17990  0.96500  Biso   1.000  O 
  Co1      1.0000 0.86499  0.39843  0.97501  Biso   1.000  Co
  N1       1.0000 0.75170  0.39450  0.11960  Biso   1.000  N 
  C3       1.0000 0.60870  0.45460  0.13480  Biso   1.000  C 
  C4       1.0000 0.52660  0.45470  0.22520  Biso   1.000  C 
  C5       1.0000 0.59240  0.38770  0.30480  Biso   1.000  C 
  C6       1.0000 0.51370  0.37740  0.40340  Biso   1.000  C 
  H1       1.0000 0.56471  0.33014  0.45333  Biso   1.000  H 
  N2       1.0000 0.37810  0.43130  0.42250  Biso   1.000  N 
  N3       1.0000 0.32860  0.40300  0.52050  Biso   1.000  N 
  C7       1.0000 0.19350  0.47180  0.54350  Biso   1.000  C 
  C8       1.0000 0.12110  0.45180  0.64200  Biso   1.000  C 
  C9       1.0000 0.19000  0.35620  0.71340  Biso   1.000  C 
  H2       1.0000 0.28576  0.30119  0.69948  Biso   1.000  H 
  C10      1.0000 0.11380  0.34460  0.80490  Biso   1.000  C 
  H3       1.0000 0.16124  0.28121  0.85195  Biso   1.000  H 
  N4       1.0000 0.97620  0.41870  0.82990  Biso   1.000  N 
  C11      1.0000 0.91000  0.50960  0.76100  Biso   1.000  C 
  C12      1.0000 0.97670  0.52990  0.66760  Biso   1.000  C 
  H4       1.0000 0.92631  0.59451  0.62233  Biso   1.000  H 
  H5       1.0000 0.81380  0.56187  0.77709  Biso   1.000  H 
  H6       1.0000 0.14280  0.53377  0.49740  Biso   1.000  H 
  C13      1.0000 0.74110  0.32520  0.28940  Biso   1.000  C 
  C14      1.0000 0.81550  0.33020  0.19630  Biso   1.000  C 
  H7       1.0000 0.91446  0.28670  0.18661  Biso   1.000  H 
  H8       1.0000 0.78958  0.28078  0.34086  Biso   1.000  H 
  H9       1.0000 0.42780  0.49942  0.23280  Biso   1.000  H 
  H10      1.0000 0.56278  0.49806  0.08201  Biso   1.000  H 
  O2       1.0000 0.05540  0.33420  0.02880  Biso   1.000  O 
  C15      1.0000 0.18050  0.30180  0.04430  Biso   1.000  C 
  O3       1.0000 0.24530  0.38780  0.04260  Biso   1.000  O 
  Co2      1.0000 0.13501  0.60157  0.02499  Biso   1.000  Co
  C16      1.0000 0.22870  0.78560  0.06190  Biso   1.000  C 
  O4       1.0000 0.30380  0.65800  0.07660  Biso   1.000  O 
  O5       1.0000 0.10820  0.82010  0.03500  Biso   1.000  O 
  C17      1.0000 0.28170  0.89960  0.07770  Biso   1.000  C 
  C18      1.0000 0.41080  0.86250  0.11350  Biso   1.000  C 
  H11      1.0000 0.46334  0.76768  0.12687  Biso   1.000  H 
  C19      1.0000 0.45980  0.96870  0.12890  Biso   1.000  C 
  N5       1.0000 0.59110  0.91890  0.16800  Biso   1.000  N 
  N6       1.0000 0.64370  0.00940  0.17390  Biso   1.000  N 
  N7       1.0000 0.70440  0.08200  0.18150  Biso   1.000  N 
  C20      1.0000 0.38710  0.10900  0.10600  Biso   1.000  C 
  C21      1.0000 0.25910  0.14750  0.06940  Biso   1.000  C 
  C22      1.0000 0.20510  0.04270  0.05570  Biso   1.000  C 
  H12      1.0000 0.11906  0.06801  0.03215  Biso   1.000  H 
  H13      1.0000 0.42302  0.17839  0.11499  Biso   1.000  H 
  N8       1.0000 0.24830  0.60550  0.88040  Biso   1.000  N 
  C23      1.0000 0.39130  0.54540  0.86520  Biso   1.000  C 
  H14      1.0000 0.43722  0.50194  0.91799  Biso   1.000  H 
  C24      1.0000 0.47340  0.54530  0.77480  Biso   1.000  C 
  H15      1.0000 0.57220  0.50058  0.76720  Biso   1.000  H 
  C25      1.0000 0.40760  0.61230  0.69520  Biso   1.000  C 
  C26      1.0000 0.25890  0.67480  0.71060  Biso   1.000  C 
  C27      1.0000 0.18450  0.66980  0.80370  Biso   1.000  C 
  H16      1.0000 0.08554  0.71330  0.81339  Biso   1.000  H 
  H17      1.0000 0.21042  0.71922  0.65914  Biso   1.000  H 
  C28      1.0000 0.48630  0.62260  0.59660  Biso   1.000  C 
  N9       1.0000 0.62190  0.56870  0.57750  Biso   1.000  N 
  N10      1.0000 0.67140  0.59700  0.47950  Biso   1.000  N 
  C29      1.0000 0.80650  0.52820  0.45650  Biso   1.000  C 
  H18      1.0000 0.85720  0.46623  0.50260  Biso   1.000  H 
  C30      1.0000 0.87890  0.54820  0.35800  Biso   1.000  C 
  C31      1.0000 0.81000  0.64380  0.28660  Biso   1.000  C 
  C32      1.0000 0.88620  0.65540  0.19510  Biso   1.000  C 
  H19      1.0000 0.83876  0.71879  0.14805  Biso   1.000  H 
  N11      1.0000 0.02380  0.58130  0.17010  Biso   1.000  N 
  C33      1.0000 0.09000  0.49040  0.23900  Biso   1.000  C 
  H20      1.0000 0.18620  0.43813  0.22291  Biso   1.000  H 
  C34      1.0000 0.02330  0.47010  0.33240  Biso   1.000  C 
  H21      1.0000 0.07369  0.40549  0.37767  Biso   1.000  H 
  H22      1.0000 0.71424  0.69881  0.30052  Biso   1.000  H 
  H23      1.0000 0.43529  0.66986  0.54667  Biso   1.000  H 
  O6       1.0000 0.94460  0.66580  0.97120  Biso   1.000  O 
  C35      1.0000 0.81950  0.69820  0.95570  Biso   1.000  C 
  O7       1.0000 0.75470  0.61220  0.95740  Biso   1.000  O 
  C36      1.0000 0.74090  0.85250  0.93060  Biso   1.000  C 
  C37      1.0000 0.79490  0.95730  0.94430  Biso   1.000  C 
  H24      1.0000 0.88094  0.93199  0.96785  Biso   1.000  H 
  C38      1.0000 0.61290  0.89100  0.89400  Biso   1.000  C 
  H25      1.0000 0.57698  0.82161  0.88501  Biso   1.000  H 
  C39      1.0000 0.54020  0.03130  0.87110  Biso   1.000  C 
  N12      1.0000 0.40890  0.08110  0.83200  Biso   1.000  N 
  N13      1.0000 0.35630  0.99060  0.82610  Biso   1.000  N 
  N14      1.0000 0.29560  0.91800  0.81850  Biso   1.000  N 
  C40      1.0000 0.58920  0.13750  0.88650  Biso   1.000  C 
  H26      1.0000 0.53666  0.23232  0.87313  Biso   1.000  H 
  O8       1.0000 0.69620  0.34200  0.92340  Biso   1.000  O 
