data_image0
_cell_length_a       21.512
_cell_length_b       15.328
_cell_length_c       16.904
_cell_angle_alpha    90
_cell_angle_beta     127.176
_cell_angle_gamma    90

_symmetry_space_group_name_H-M    "P 1"
_symmetry_int_tables_number       1

loop_
  _symmetry_equiv_pos_as_xyz
  'x, y, z'

loop_
  _atom_site_label
  _atom_site_occupancy
  _atom_site_fract_x
  _atom_site_fract_y
  _atom_site_fract_z
  _atom_site_thermal_displace_type
  _atom_site_B_iso_or_equiv
  _atom_site_type_symbol
  Co1      1.0000 0.13485  0.25131  0.12133  Biso   1.000  Co
  Co2      1.0000 0.63485  0.75131  0.12133  Biso   1.000  Co
  Co3      1.0000 0.13485  0.74869  0.62133  Biso   1.000  Co
  Co4      1.0000 0.63485  0.24869  0.62133  Biso   1.000  Co
  Co5      1.0000 0.86515  0.74869  0.87867  Biso   1.000  Co
  Co6      1.0000 0.36515  0.24869  0.87867  Biso   1.000  Co
  Co7      1.0000 0.86515  0.25131  0.37867  Biso   1.000  Co
  Co8      1.0000 0.36515  0.75131  0.37867  Biso   1.000  Co
  Cr1      1.0000 0.42812  0.26574  0.50418  Biso   1.000  Cr
  Cr2      1.0000 0.92812  0.76574  0.50418  Biso   1.000  Cr
  Cr3      1.0000 0.42812  0.73426  0.00418  Biso   1.000  Cr
  Cr4      1.0000 0.92812  0.23426  0.00418  Biso   1.000  Cr
  Cr5      1.0000 0.57188  0.73426  0.49582  Biso   1.000  Cr
  Cr6      1.0000 0.07188  0.23426  0.49582  Biso   1.000  Cr
  Cr7      1.0000 0.57188  0.26574  0.99582  Biso   1.000  Cr
  Cr8      1.0000 0.07188  0.76574  0.99582  Biso   1.000  Cr
  Cr9      1.0000 0.33360  0.20518  0.27714  Biso   1.000  Cr
  Cr10     1.0000 0.83360  0.70518  0.27714  Biso   1.000  Cr
  Cr11     1.0000 0.33360  0.79482  0.77714  Biso   1.000  Cr
  Cr12     1.0000 0.83360  0.29482  0.77714  Biso   1.000  Cr
  Cr13     1.0000 0.66640  0.79482  0.72286  Biso   1.000  Cr
  Cr14     1.0000 0.16640  0.29482  0.72286  Biso   1.000  Cr
  Cr15     1.0000 0.66640  0.20518  0.22286  Biso   1.000  Cr
  Cr16     1.0000 0.16640  0.70518  0.22286  Biso   1.000  Cr
  O1       1.0000 0.40530  0.36630  0.48270  Biso   1.000  O 
  O2       1.0000 0.90530  0.86630  0.48270  Biso   1.000  O 
  O3       1.0000 0.40530  0.63370  0.98270  Biso   1.000  O 
  O4       1.0000 0.90530  0.13370  0.98270  Biso   1.000  O 
  O5       1.0000 0.59470  0.63370  0.51730  Biso   1.000  O 
  O6       1.0000 0.09470  0.13370  0.51730  Biso   1.000  O 
  O7       1.0000 0.59470  0.36630  0.01730  Biso   1.000  O 
  O8       1.0000 0.09470  0.86630  0.01730  Biso   1.000  O 
  O9       1.0000 0.42650  0.23420  0.59310  Biso   1.000  O 
  O10      1.0000 0.92650  0.73420  0.59310  Biso   1.000  O 
  O11      1.0000 0.42650  0.76580  0.09310  Biso   1.000  O 
  O12      1.0000 0.92650  0.26580  0.09310  Biso   1.000  O 
  O13      1.0000 0.57350  0.76580  0.40690  Biso   1.000  O 
  O14      1.0000 0.07350  0.26580  0.40690  Biso   1.000  O 
  O15      1.0000 0.57350  0.23420  0.90690  Biso   1.000  O 
  O16      1.0000 0.07350  0.73420  0.90690  Biso   1.000  O 
  O17      1.0000 0.51518  0.25130  0.53330  Biso   1.000  O 
  O18      1.0000 0.01518  0.75130  0.53330  Biso   1.000  O 
  O19      1.0000 0.51518  0.74870  0.03330  Biso   1.000  O 
  O20      1.0000 0.01518  0.24870  0.03330  Biso   1.000  O 
  O21      1.0000 0.48482  0.74870  0.46670  Biso   1.000  O 
  O22      1.0000 0.98482  0.24870  0.46670  Biso   1.000  O 
  O23      1.0000 0.48482  0.25130  0.96670  Biso   1.000  O 
  O24      1.0000 0.98482  0.75130  0.96670  Biso   1.000  O 
  O25      1.0000 0.35760  0.20260  0.39800  Biso   1.000  O 
  O26      1.0000 0.85760  0.70260  0.39800  Biso   1.000  O 
  O27      1.0000 0.35760  0.79740  0.89800  Biso   1.000  O 
  O28      1.0000 0.85760  0.29740  0.89800  Biso   1.000  O 
  O29      1.0000 0.64240  0.79740  0.60200  Biso   1.000  O 
  O30      1.0000 0.14240  0.29740  0.60200  Biso   1.000  O 
  O31      1.0000 0.64240  0.20260  0.10200  Biso   1.000  O 
  O32      1.0000 0.14240  0.70260  0.10200  Biso   1.000  O 
  O33      1.0000 0.40340  0.24720  0.27970  Biso   1.000  O 
  O34      1.0000 0.90340  0.74720  0.27970  Biso   1.000  O 
  O35      1.0000 0.40340  0.75280  0.77970  Biso   1.000  O 
  O36      1.0000 0.90340  0.25280  0.77970  Biso   1.000  O 
  O37      1.0000 0.59660  0.75280  0.72030  Biso   1.000  O 
  O38      1.0000 0.09660  0.25280  0.72030  Biso   1.000  O 
  O39      1.0000 0.59660  0.24720  0.22030  Biso   1.000  O 
  O40      1.0000 0.09660  0.74720  0.22030  Biso   1.000  O 
  O41      1.0000 0.31790  0.10760  0.23700  Biso   1.000  O 
  O42      1.0000 0.81790  0.60760  0.23700  Biso   1.000  O 
  O43      1.0000 0.31790  0.89240  0.73700  Biso   1.000  O 
  O44      1.0000 0.81790  0.39240  0.73700  Biso   1.000  O 
  O45      1.0000 0.68210  0.89240  0.76300  Biso   1.000  O 
  O46      1.0000 0.18210  0.39240  0.76300  Biso   1.000  O 
  O47      1.0000 0.68210  0.10760  0.26300  Biso   1.000  O 
  O48      1.0000 0.18210  0.60760  0.26300  Biso   1.000  O 
  O49      1.0000 0.25370  0.26360  0.20430  Biso   1.000  O 
  O50      1.0000 0.75370  0.76360  0.20430  Biso   1.000  O 
  O51      1.0000 0.25370  0.73640  0.70430  Biso   1.000  O 
  O52      1.0000 0.75370  0.23640  0.70430  Biso   1.000  O 
  O53      1.0000 0.74630  0.73640  0.79570  Biso   1.000  O 
  O54      1.0000 0.24630  0.23640  0.79570  Biso   1.000  O 
  O55      1.0000 0.74630  0.26360  0.29570  Biso   1.000  O 
  O56      1.0000 0.24630  0.76360  0.29570  Biso   1.000  O 
  N1       1.0000 0.14020  0.34240  0.21930  Biso   1.000  N 
  N2       1.0000 0.64020  0.84240  0.21930  Biso   1.000  N 
  N3       1.0000 0.14020  0.65760  0.71930  Biso   1.000  N 
  N4       1.0000 0.64020  0.15760  0.71930  Biso   1.000  N 
  N5       1.0000 0.85980  0.65760  0.78070  Biso   1.000  N 
  N6       1.0000 0.35980  0.15760  0.78070  Biso   1.000  N 
  N7       1.0000 0.85980  0.34240  0.28070  Biso   1.000  N 
  N8       1.0000 0.35980  0.84240  0.28070  Biso   1.000  N 
  N9       1.0000 0.12230  0.63950  0.52760  Biso   1.000  N 
  N10      1.0000 0.62230  0.13950  0.52760  Biso   1.000  N 
  N11      1.0000 0.12230  0.36050  0.02760  Biso   1.000  N 
  N12      1.0000 0.62230  0.86050  0.02760  Biso   1.000  N 
  N13      1.0000 0.87770  0.36050  0.47240  Biso   1.000  N 
  N14      1.0000 0.37770  0.86050  0.47240  Biso   1.000  N 
  N15      1.0000 0.87770  0.63950  0.97240  Biso   1.000  N 
  N16      1.0000 0.37770  0.13950  0.97240  Biso   1.000  N 
  N17      1.0000 0.13280  0.83740  0.52210  Biso   1.000  N 
  N18      1.0000 0.63280  0.33740  0.52210  Biso   1.000  N 
  N19      1.0000 0.13280  0.16260  0.02210  Biso   1.000  N 
  N20      1.0000 0.63280  0.66260  0.02210  Biso   1.000  N 
  N21      1.0000 0.86720  0.16260  0.47790  Biso   1.000  N 
  N22      1.0000 0.36720  0.66260  0.47790  Biso   1.000  N 
  N23      1.0000 0.86720  0.83740  0.97790  Biso   1.000  N 
  N24      1.0000 0.36720  0.33740  0.97790  Biso   1.000  N 
  N25      1.0000 0.13280  0.14270  0.20600  Biso   1.000  N 
  N26      1.0000 0.63280  0.64270  0.20600  Biso   1.000  N 
  N27      1.0000 0.13280  0.85730  0.70600  Biso   1.000  N 
  N28      1.0000 0.63280  0.35730  0.70600  Biso   1.000  N 
  N29      1.0000 0.86720  0.85730  0.79400  Biso   1.000  N 
  N30      1.0000 0.36720  0.35730  0.79400  Biso   1.000  N 
  N31      1.0000 0.86720  0.14270  0.29400  Biso   1.000  N 
  N32      1.0000 0.36720  0.64270  0.29400  Biso   1.000  N 
  C1       1.0000 0.09050  0.65550  0.43130  Biso   1.000  C 
  C2       1.0000 0.59050  0.15550  0.43130  Biso   1.000  C 
  C3       1.0000 0.09050  0.34450  0.93130  Biso   1.000  C 
  C4       1.0000 0.59050  0.84450  0.93130  Biso   1.000  C 
  C5       1.0000 0.90950  0.34450  0.56870  Biso   1.000  C 
  C6       1.0000 0.40950  0.84450  0.56870  Biso   1.000  C 
  C7       1.0000 0.90950  0.65550  0.06870  Biso   1.000  C 
  C8       1.0000 0.40950  0.15550  0.06870  Biso   1.000  C 
  H1       1.0000 0.06390  0.70770  0.40340  Biso   1.000  H 
  H2       1.0000 0.56390  0.20770  0.40340  Biso   1.000  H 
  H3       1.0000 0.06390  0.29230  0.90340  Biso   1.000  H 
  H4       1.0000 0.56390  0.79230  0.90340  Biso   1.000  H 
  H5       1.0000 0.93610  0.29230  0.59660  Biso   1.000  H 
  H6       1.0000 0.43610  0.79230  0.59660  Biso   1.000  H 
  H7       1.0000 0.93610  0.70770  0.09660  Biso   1.000  H 
  H8       1.0000 0.43610  0.20770  0.09660  Biso   1.000  H 
  C9       1.0000 0.09550  0.59890  0.37290  Biso   1.000  C 
  C10      1.0000 0.59550  0.09890  0.37290  Biso   1.000  C 
  C11      1.0000 0.09550  0.40110  0.87290  Biso   1.000  C 
  C12      1.0000 0.59550  0.90110  0.87290  Biso   1.000  C 
  C13      1.0000 0.90450  0.40110  0.62710  Biso   1.000  C 
  C14      1.0000 0.40450  0.90110  0.62710  Biso   1.000  C 
  C15      1.0000 0.90450  0.59890  0.12710  Biso   1.000  C 
  C16      1.0000 0.40450  0.09890  0.12710  Biso   1.000  C 
  H9       1.0000 0.07620  0.61510  0.30880  Biso   1.000  H 
  H10      1.0000 0.57620  0.11510  0.30880  Biso   1.000  H 
  H11      1.0000 0.07620  0.38490  0.80880  Biso   1.000  H 
  H12      1.0000 0.57620  0.88490  0.80880  Biso   1.000  H 
  H13      1.0000 0.92380  0.38490  0.69120  Biso   1.000  H 
  H14      1.0000 0.42380  0.88490  0.69120  Biso   1.000  H 
  H15      1.0000 0.92380  0.61510  0.19120  Biso   1.000  H 
  H16      1.0000 0.42380  0.11510  0.19120  Biso   1.000  H 
  C17      1.0000 0.15570  0.49650  0.50470  Biso   1.000  C 
  C18      1.0000 0.65570  0.99650  0.50470  Biso   1.000  C 
  C19      1.0000 0.15570  0.50350  0.00470  Biso   1.000  C 
  C20      1.0000 0.65570  0.00350  0.00470  Biso   1.000  C 
  C21      1.0000 0.84430  0.50350  0.49530  Biso   1.000  C 
  C22      1.0000 0.34430  0.00350  0.49530  Biso   1.000  C 
  C23      1.0000 0.84430  0.49650  0.99530  Biso   1.000  C 
  C24      1.0000 0.34430  0.99650  0.99530  Biso   1.000  C 
  H17      1.0000 0.17560  0.44130  0.53070  Biso   1.000  H 
  H18      1.0000 0.67560  0.94130  0.53070  Biso   1.000  H 
  H19      1.0000 0.17560  0.55870  0.03070  Biso   1.000  H 
  H20      1.0000 0.67560  0.05870  0.03070  Biso   1.000  H 
  H21      1.0000 0.82440  0.55870  0.46930  Biso   1.000  H 
  H22      1.0000 0.32440  0.05870  0.46930  Biso   1.000  H 
  H23      1.0000 0.82440  0.44130  0.96930  Biso   1.000  H 
  H24      1.0000 0.32440  0.94130  0.96930  Biso   1.000  H 
  C25      1.0000 0.12940  0.51680  0.40910  Biso   1.000  C 
  C26      1.0000 0.62940  0.01680  0.40910  Biso   1.000  C 
  C27      1.0000 0.12940  0.48320  0.90910  Biso   1.000  C 
  C28      1.0000 0.62940  0.98320  0.90910  Biso   1.000  C 
  C29      1.0000 0.87060  0.48320  0.59090  Biso   1.000  C 
  C30      1.0000 0.37060  0.98320  0.59090  Biso   1.000  C 
  C31      1.0000 0.87060  0.51680  0.09090  Biso   1.000  C 
  C32      1.0000 0.37060  0.01680  0.09090  Biso   1.000  C 
  C33      1.0000 0.15220  0.55850  0.56100  Biso   1.000  C 
  C34      1.0000 0.65220  0.05850  0.56100  Biso   1.000  C 
  C35      1.0000 0.15220  0.44150  0.06100  Biso   1.000  C 
  C36      1.0000 0.65220  0.94150  0.06100  Biso   1.000  C 
  C37      1.0000 0.84780  0.44150  0.43900  Biso   1.000  C 
  C38      1.0000 0.34780  0.94150  0.43900  Biso   1.000  C 
  C39      1.0000 0.84780  0.55850  0.93900  Biso   1.000  C 
  C40      1.0000 0.34780  0.05850  0.93900  Biso   1.000  C 
  H25      1.0000 0.17150  0.54400  0.62550  Biso   1.000  H 
  H26      1.0000 0.67150  0.04400  0.62550  Biso   1.000  H 
  H27      1.0000 0.17150  0.45600  0.12550  Biso   1.000  H 
  H28      1.0000 0.67150  0.95600  0.12550  Biso   1.000  H 
  H29      1.0000 0.82850  0.45600  0.37450  Biso   1.000  H 
  H30      1.0000 0.32850  0.95600  0.37450  Biso   1.000  H 
  H31      1.0000 0.82850  0.54400  0.87450  Biso   1.000  H 
  H32      1.0000 0.32850  0.04400  0.87450  Biso   1.000  H 
  C41      1.0000 0.08130  0.39830  0.18450  Biso   1.000  C 
  C42      1.0000 0.58130  0.89830  0.18450  Biso   1.000  C 
  C43      1.0000 0.08130  0.60170  0.68450  Biso   1.000  C 
  C44      1.0000 0.58130  0.10170  0.68450  Biso   1.000  C 
  C45      1.0000 0.91870  0.60170  0.81550  Biso   1.000  C 
  C46      1.0000 0.41870  0.10170  0.81550  Biso   1.000  C 
  C47      1.0000 0.91870  0.39830  0.31550  Biso   1.000  C 
  C48      1.0000 0.41870  0.89830  0.31550  Biso   1.000  C 
  H33      1.0000 0.04130  0.39850  0.11660  Biso   1.000  H 
  H34      1.0000 0.54130  0.89850  0.11660  Biso   1.000  H 
  H35      1.0000 0.04130  0.60150  0.61660  Biso   1.000  H 
  H36      1.0000 0.54130  0.10150  0.61660  Biso   1.000  H 
  H37      1.0000 0.95870  0.60150  0.88340  Biso   1.000  H 
  H38      1.0000 0.45870  0.10150  0.88340  Biso   1.000  H 
  H39      1.0000 0.95870  0.39850  0.38340  Biso   1.000  H 
  H40      1.0000 0.45870  0.89850  0.38340  Biso   1.000  H 
  C49      1.0000 0.07650  0.45520  0.24290  Biso   1.000  C 
  C50      1.0000 0.57650  0.95520  0.24290  Biso   1.000  C 
  C51      1.0000 0.07650  0.54480  0.74290  Biso   1.000  C 
  C52      1.0000 0.57650  0.04480  0.74290  Biso   1.000  C 
  C53      1.0000 0.92350  0.54480  0.75710  Biso   1.000  C 
  C54      1.0000 0.42350  0.04480  0.75710  Biso   1.000  C 
  C55      1.0000 0.92350  0.45520  0.25710  Biso   1.000  C 
  C56      1.0000 0.42350  0.95520  0.25710  Biso   1.000  C 
  H41      1.0000 0.03450  0.49350  0.21430  Biso   1.000  H 
  H42      1.0000 0.53450  0.99350  0.21430  Biso   1.000  H 
  H43      1.0000 0.03450  0.50650  0.71430  Biso   1.000  H 
  H44      1.0000 0.53450  0.00650  0.71430  Biso   1.000  H 
  H45      1.0000 0.96550  0.50650  0.78570  Biso   1.000  H 
  H46      1.0000 0.46550  0.00650  0.78570  Biso   1.000  H 
  H47      1.0000 0.96550  0.49350  0.28570  Biso   1.000  H 
  H48      1.0000 0.46550  0.99350  0.28570  Biso   1.000  H 
  C57      1.0000 0.13500  0.45590  0.34650  Biso   1.000  C 
  C58      1.0000 0.63500  0.95590  0.34650  Biso   1.000  C 
  C59      1.0000 0.13500  0.54410  0.84650  Biso   1.000  C 
  C60      1.0000 0.63500  0.04410  0.84650  Biso   1.000  C 
  C61      1.0000 0.86500  0.54410  0.65350  Biso   1.000  C 
  C62      1.0000 0.36500  0.04410  0.65350  Biso   1.000  C 
  C63      1.0000 0.86500  0.45590  0.15350  Biso   1.000  C 
  C64      1.0000 0.36500  0.95590  0.15350  Biso   1.000  C 
  C65      1.0000 0.19710  0.39930  0.38330  Biso   1.000  C 
  C66      1.0000 0.69710  0.89930  0.38330  Biso   1.000  C 
  C67      1.0000 0.19710  0.60070  0.88330  Biso   1.000  C 
  C68      1.0000 0.69710  0.10070  0.88330  Biso   1.000  C 
  C69      1.0000 0.80290  0.60070  0.61670  Biso   1.000  C 
  C70      1.0000 0.30290  0.10070  0.61670  Biso   1.000  C 
  C71      1.0000 0.80290  0.39930  0.11670  Biso   1.000  C 
  C72      1.0000 0.30290  0.89930  0.11670  Biso   1.000  C 
  H49      1.0000 0.23810  0.39790  0.45090  Biso   1.000  H 
  H50      1.0000 0.73810  0.89790  0.45090  Biso   1.000  H 
  H51      1.0000 0.23810  0.60210  0.95090  Biso   1.000  H 
  H52      1.0000 0.73810  0.10210  0.95090  Biso   1.000  H 
  H53      1.0000 0.76190  0.60210  0.54910  Biso   1.000  H 
  H54      1.0000 0.26190  0.10210  0.54910  Biso   1.000  H 
  H55      1.0000 0.76190  0.39790  0.04910  Biso   1.000  H 
  H56      1.0000 0.26190  0.89790  0.04910  Biso   1.000  H 
  C73      1.0000 0.19740  0.34500  0.31810  Biso   1.000  C 
  C74      1.0000 0.69740  0.84500  0.31810  Biso   1.000  C 
  C75      1.0000 0.19740  0.65500  0.81810  Biso   1.000  C 
  C76      1.0000 0.69740  0.15500  0.81810  Biso   1.000  C 
  C77      1.0000 0.80260  0.65500  0.68190  Biso   1.000  C 
  C78      1.0000 0.30260  0.15500  0.68190  Biso   1.000  C 
  C79      1.0000 0.80260  0.34500  0.18190  Biso   1.000  C 
  C80      1.0000 0.30260  0.84500  0.18190  Biso   1.000  C 
  H57      1.0000 0.23980  0.30780  0.34400  Biso   1.000  H 
  H58      1.0000 0.73980  0.80780  0.34400  Biso   1.000  H 
  H59      1.0000 0.23980  0.69220  0.84400  Biso   1.000  H 
  H60      1.0000 0.73980  0.19220  0.84400  Biso   1.000  H 
  H61      1.0000 0.76020  0.69220  0.65600  Biso   1.000  H 
  H62      1.0000 0.26020  0.19220  0.65600  Biso   1.000  H 
  H63      1.0000 0.76020  0.30780  0.15600  Biso   1.000  H 
  H64      1.0000 0.26020  0.80780  0.15600  Biso   1.000  H 
  C81      1.0000 0.07510  0.89660  0.46880  Biso   1.000  C 
  C82      1.0000 0.57510  0.39660  0.46880  Biso   1.000  C 
  C83      1.0000 0.07510  0.10340  0.96880  Biso   1.000  C 
  C84      1.0000 0.57510  0.60340  0.96880  Biso   1.000  C 
  C85      1.0000 0.92490  0.10340  0.53120  Biso   1.000  C 
  C86      1.0000 0.42490  0.60340  0.53120  Biso   1.000  C 
  C87      1.0000 0.92490  0.89660  0.03120  Biso   1.000  C 
  C88      1.0000 0.42490  0.39660  0.03120  Biso   1.000  C 
  H65      1.0000 0.03610  0.89890  0.47700  Biso   1.000  H 
  H66      1.0000 0.53610  0.39890  0.47700  Biso   1.000  H 
  H67      1.0000 0.03610  0.10110  0.97700  Biso   1.000  H 
  H68      1.0000 0.53610  0.60110  0.97700  Biso   1.000  H 
  H69      1.0000 0.96390  0.10110  0.52300  Biso   1.000  H 
  H70      1.0000 0.46390  0.60110  0.52300  Biso   1.000  H 
  H71      1.0000 0.96390  0.89890  0.02300  Biso   1.000  H 
  H72      1.0000 0.46390  0.39890  0.02300  Biso   1.000  H 
  C89      1.0000 0.07110  0.95360  0.40310  Biso   1.000  C 
  C90      1.0000 0.57110  0.45360  0.40310  Biso   1.000  C 
  C91      1.0000 0.07110  0.04640  0.90310  Biso   1.000  C 
  C92      1.0000 0.57110  0.54640  0.90310  Biso   1.000  C 
  C93      1.0000 0.92890  0.04640  0.59690  Biso   1.000  C 
  C94      1.0000 0.42890  0.54640  0.59690  Biso   1.000  C 
  C95      1.0000 0.92890  0.95360  0.09690  Biso   1.000  C 
  C96      1.0000 0.42890  0.45360  0.09690  Biso   1.000  C 
  H73      1.0000 0.03170  0.99530  0.37080  Biso   1.000  H 
  H74      1.0000 0.53170  0.49530  0.37080  Biso   1.000  H 
  H75      1.0000 0.03170  0.00470  0.87080  Biso   1.000  H 
  H76      1.0000 0.53170  0.50470  0.87080  Biso   1.000  H 
  H77      1.0000 0.96830  0.00470  0.62920  Biso   1.000  H 
  H78      1.0000 0.46830  0.50470  0.62920  Biso   1.000  H 
  H79      1.0000 0.96830  0.99530  0.12920  Biso   1.000  H 
  H80      1.0000 0.46830  0.49530  0.12920  Biso   1.000  H 
  C97      1.0000 0.12610  0.94910  0.38490  Biso   1.000  C 
  C98      1.0000 0.62610  0.44910  0.38490  Biso   1.000  C 
  C99      1.0000 0.12610  0.05090  0.88490  Biso   1.000  C 
  C100     1.0000 0.62610  0.55090  0.88490  Biso   1.000  C 
  C101     1.0000 0.87390  0.05090  0.61510  Biso   1.000  C 
  C102     1.0000 0.37390  0.55090  0.61510  Biso   1.000  C 
  C103     1.0000 0.87390  0.94910  0.11510  Biso   1.000  C 
  C104     1.0000 0.37390  0.44910  0.11510  Biso   1.000  C 
  C105     1.0000 0.18390  0.88410  0.43690  Biso   1.000  C 
  C106     1.0000 0.68390  0.38410  0.43690  Biso   1.000  C 
  C107     1.0000 0.18390  0.11590  0.93690  Biso   1.000  C 
  C108     1.0000 0.68390  0.61590  0.93690  Biso   1.000  C 
  C109     1.0000 0.81610  0.11590  0.56310  Biso   1.000  C 
  C110     1.0000 0.31610  0.61590  0.56310  Biso   1.000  C 
  C111     1.0000 0.81610  0.88410  0.06310  Biso   1.000  C 
  C112     1.0000 0.31610  0.38410  0.06310  Biso   1.000  C 
  H81      1.0000 0.22080  0.87610  0.42560  Biso   1.000  H 
  H82      1.0000 0.72080  0.37610  0.42560  Biso   1.000  H 
  H83      1.0000 0.22080  0.12390  0.92560  Biso   1.000  H 
  H84      1.0000 0.72080  0.62390  0.92560  Biso   1.000  H 
  H85      1.0000 0.77920  0.12390  0.57440  Biso   1.000  H 
  H86      1.0000 0.27920  0.62390  0.57440  Biso   1.000  H 
  H87      1.0000 0.77920  0.87610  0.07440  Biso   1.000  H 
  H88      1.0000 0.27920  0.37610  0.07440  Biso   1.000  H 
  C113     1.0000 0.18510  0.83290  0.50410  Biso   1.000  C 
  C114     1.0000 0.68510  0.33290  0.50410  Biso   1.000  C 
  C115     1.0000 0.18510  0.16710  0.00410  Biso   1.000  C 
  C116     1.0000 0.68510  0.66710  0.00410  Biso   1.000  C 
  C117     1.0000 0.81490  0.16710  0.49590  Biso   1.000  C 
  C118     1.0000 0.31490  0.66710  0.49590  Biso   1.000  C 
  C119     1.0000 0.81490  0.83290  0.99590  Biso   1.000  C 
  C120     1.0000 0.31490  0.33290  0.99590  Biso   1.000  C 
  H89      1.0000 0.22510  0.79220  0.53960  Biso   1.000  H 
  H90      1.0000 0.72510  0.29220  0.53960  Biso   1.000  H 
  H91      1.0000 0.22510  0.20780  0.03960  Biso   1.000  H 
  H92      1.0000 0.72510  0.70780  0.03960  Biso   1.000  H 
  H93      1.0000 0.77490  0.20780  0.46040  Biso   1.000  H 
  H94      1.0000 0.27490  0.70780  0.46040  Biso   1.000  H 
  H95      1.0000 0.77490  0.79220  0.96040  Biso   1.000  H 
  H96      1.0000 0.27490  0.29220  0.96040  Biso   1.000  H 
  C121     1.0000 0.12680  0.01290  0.31990  Biso   1.000  C 
  C122     1.0000 0.62680  0.51290  0.31990  Biso   1.000  C 
  C123     1.0000 0.12680  0.98710  0.81990  Biso   1.000  C 
  C124     1.0000 0.62680  0.48710  0.81990  Biso   1.000  C 
  C125     1.0000 0.87320  0.98710  0.68010  Biso   1.000  C 
  C126     1.0000 0.37320  0.48710  0.68010  Biso   1.000  C 
  C127     1.0000 0.87320  0.01290  0.18010  Biso   1.000  C 
  C128     1.0000 0.37320  0.51290  0.18010  Biso   1.000  C 
  C129     1.0000 0.10170  0.09830  0.31440  Biso   1.000  C 
  C130     1.0000 0.60170  0.59830  0.31440  Biso   1.000  C 
  C131     1.0000 0.10170  0.90170  0.81440  Biso   1.000  C 
  C132     1.0000 0.60170  0.40170  0.81440  Biso   1.000  C 
  C133     1.0000 0.89830  0.90170  0.68560  Biso   1.000  C 
  C134     1.0000 0.39830  0.40170  0.68560  Biso   1.000  C 
  C135     1.0000 0.89830  0.09830  0.18560  Biso   1.000  C 
  C136     1.0000 0.39830  0.59830  0.18560  Biso   1.000  C 
  H97      1.0000 0.08310  0.11390  0.34980  Biso   1.000  H 
  H98      1.0000 0.58310  0.61390  0.34980  Biso   1.000  H 
  H99      1.0000 0.08310  0.88610  0.84980  Biso   1.000  H 
  H100     1.0000 0.58310  0.38610  0.84980  Biso   1.000  H 
  H101     1.0000 0.91690  0.88610  0.65020  Biso   1.000  H 
  H102     1.0000 0.41690  0.38610  0.65020  Biso   1.000  H 
  H103     1.0000 0.91690  0.11390  0.15020  Biso   1.000  H 
  H104     1.0000 0.41690  0.61390  0.15020  Biso   1.000  H 
  C137     1.0000 0.10430  0.15860  0.25760  Biso   1.000  C 
  C138     1.0000 0.60430  0.65860  0.25760  Biso   1.000  C 
  C139     1.0000 0.10430  0.84140  0.75760  Biso   1.000  C 
  C140     1.0000 0.60430  0.34140  0.75760  Biso   1.000  C 
  C141     1.0000 0.89570  0.84140  0.74240  Biso   1.000  C 
  C142     1.0000 0.39570  0.34140  0.74240  Biso   1.000  C 
  C143     1.0000 0.89570  0.15860  0.24240  Biso   1.000  C 
  C144     1.0000 0.39570  0.65860  0.24240  Biso   1.000  C 
  H105     1.0000 0.08540  0.21430  0.25390  Biso   1.000  H 
  H106     1.0000 0.58540  0.71430  0.25390  Biso   1.000  H 
  H107     1.0000 0.08540  0.78570  0.75390  Biso   1.000  H 
  H108     1.0000 0.58540  0.28570  0.75390  Biso   1.000  H 
  H109     1.0000 0.91460  0.78570  0.74610  Biso   1.000  H 
  H110     1.0000 0.41460  0.28570  0.74610  Biso   1.000  H 
  H111     1.0000 0.91460  0.21430  0.24610  Biso   1.000  H 
  H112     1.0000 0.41460  0.71430  0.24610  Biso   1.000  H 
  C145     1.0000 0.15620  0.05990  0.21040  Biso   1.000  C 
  C146     1.0000 0.65620  0.55990  0.21040  Biso   1.000  C 
  C147     1.0000 0.15620  0.94010  0.71040  Biso   1.000  C 
  C148     1.0000 0.65620  0.44010  0.71040  Biso   1.000  C 
  C149     1.0000 0.84380  0.94010  0.78960  Biso   1.000  C 
  C150     1.0000 0.34380  0.44010  0.78960  Biso   1.000  C 
  C151     1.0000 0.84380  0.05990  0.28960  Biso   1.000  C 
  C152     1.0000 0.34380  0.55990  0.28960  Biso   1.000  C 
  H113     1.0000 0.17560  0.04620  0.17550  Biso   1.000  H 
  H114     1.0000 0.67560  0.54620  0.17550  Biso   1.000  H 
  H115     1.0000 0.17560  0.95380  0.67550  Biso   1.000  H 
  H116     1.0000 0.67560  0.45380  0.67550  Biso   1.000  H 
  H117     1.0000 0.82440  0.95380  0.82450  Biso   1.000  H 
  H118     1.0000 0.32440  0.45380  0.82450  Biso   1.000  H 
  H119     1.0000 0.82440  0.04620  0.32450  Biso   1.000  H 
  H120     1.0000 0.32440  0.54620  0.32450  Biso   1.000  H 
  C153     1.0000 0.15280  0.99470  0.26370  Biso   1.000  C 
  C154     1.0000 0.65280  0.49470  0.26370  Biso   1.000  C 
  C155     1.0000 0.15280  0.00530  0.76370  Biso   1.000  C 
  C156     1.0000 0.65280  0.50530  0.76370  Biso   1.000  C 
  C157     1.0000 0.84720  0.00530  0.73630  Biso   1.000  C 
  C158     1.0000 0.34720  0.50530  0.73630  Biso   1.000  C 
  C159     1.0000 0.84720  0.99470  0.23630  Biso   1.000  C 
  C160     1.0000 0.34720  0.49470  0.23630  Biso   1.000  C 
  H121     1.0000 0.16800  0.93830  0.26220  Biso   1.000  H 
  H122     1.0000 0.66800  0.43830  0.26220  Biso   1.000  H 
  H123     1.0000 0.16800  0.06170  0.76220  Biso   1.000  H 
  H124     1.0000 0.66800  0.56170  0.76220  Biso   1.000  H 
  H125     1.0000 0.83200  0.06170  0.73780  Biso   1.000  H 
  H126     1.0000 0.33200  0.56170  0.73780  Biso   1.000  H 
  H127     1.0000 0.83200  0.93830  0.23780  Biso   1.000  H 
  H128     1.0000 0.33200  0.43830  0.23780  Biso   1.000  H 
