data_image0
_cell_length_a       20.927
_cell_length_b       7.349
_cell_length_c       15.771
_cell_angle_alpha    90
_cell_angle_beta     90
_cell_angle_gamma    90

_symmetry_space_group_name_H-M    "P 1"
_symmetry_int_tables_number       1

loop_
  _symmetry_equiv_pos_as_xyz
  'x, y, z'

loop_
  _atom_site_label
  _atom_site_occupancy
  _atom_site_fract_x
  _atom_site_fract_y
  _atom_site_fract_z
  _atom_site_thermal_displace_type
  _atom_site_B_iso_or_equiv
  _atom_site_type_symbol
  C1       1.0000 0.81430  0.25000  0.19370  Biso   1.000  C 
  C2       1.0000 0.68570  0.75000  0.69370  Biso   1.000  C 
  C3       1.0000 0.31430  0.25000  0.30630  Biso   1.000  C 
  C4       1.0000 0.18570  0.75000  0.80630  Biso   1.000  C 
  C5       1.0000 0.86650  0.25000  0.14050  Biso   1.000  C 
  C6       1.0000 0.63350  0.75000  0.64050  Biso   1.000  C 
  C7       1.0000 0.36650  0.25000  0.35950  Biso   1.000  C 
  C8       1.0000 0.13350  0.75000  0.85950  Biso   1.000  C 
  H1       1.0000 0.86080  0.25000  0.08200  Biso   1.000  H 
  H2       1.0000 0.63920  0.75000  0.58200  Biso   1.000  H 
  H3       1.0000 0.36080  0.25000  0.41800  Biso   1.000  H 
  H4       1.0000 0.13920  0.75000  0.91800  Biso   1.000  H 
  C9       1.0000 0.92860  0.25000  0.17480  Biso   1.000  C 
  C10      1.0000 0.57140  0.75000  0.67480  Biso   1.000  C 
  C11      1.0000 0.42860  0.25000  0.32520  Biso   1.000  C 
  C12      1.0000 0.07140  0.75000  0.82520  Biso   1.000  C 
  H5       1.0000 0.96380  0.25000  0.13890  Biso   1.000  H 
  H6       1.0000 0.53620  0.75000  0.63890  Biso   1.000  H 
  H7       1.0000 0.46380  0.25000  0.36110  Biso   1.000  H 
  H8       1.0000 0.03620  0.75000  0.86110  Biso   1.000  H 
  C13      1.0000 0.93760  0.25000  0.26370  Biso   1.000  C 
  C14      1.0000 0.56240  0.75000  0.76370  Biso   1.000  C 
  C15      1.0000 0.43760  0.25000  0.23630  Biso   1.000  C 
  C16      1.0000 0.06240  0.75000  0.73630  Biso   1.000  C 
  C17      1.0000 0.88440  0.25000  0.31330  Biso   1.000  C 
  C18      1.0000 0.61560  0.75000  0.81330  Biso   1.000  C 
  C19      1.0000 0.38440  0.25000  0.18670  Biso   1.000  C 
  C20      1.0000 0.11560  0.75000  0.68670  Biso   1.000  C 
  H9       1.0000 0.88960  0.25000  0.37190  Biso   1.000  H 
  H10      1.0000 0.61040  0.75000  0.87190  Biso   1.000  H 
  H11      1.0000 0.38960  0.25000  0.12810  Biso   1.000  H 
  H12      1.0000 0.11040  0.75000  0.62810  Biso   1.000  H 
  C21      1.0000 0.82320  0.25000  0.28110  Biso   1.000  C 
  C22      1.0000 0.67680  0.75000  0.78110  Biso   1.000  C 
  C23      1.0000 0.32320  0.25000  0.21890  Biso   1.000  C 
  C24      1.0000 0.17680  0.75000  0.71890  Biso   1.000  C 
  H13      1.0000 0.78820  0.25000  0.31750  Biso   1.000  H 
  H14      1.0000 0.71180  0.75000  0.81750  Biso   1.000  H 
  H15      1.0000 0.28820  0.25000  0.18250  Biso   1.000  H 
  H16      1.0000 0.21180  0.75000  0.68250  Biso   1.000  H 
  C25      1.0000 0.74720  0.25000  0.15930  Biso   1.000  C 
  C26      1.0000 0.75280  0.75000  0.65930  Biso   1.000  C 
  C27      1.0000 0.24720  0.25000  0.34070  Biso   1.000  C 
  C28      1.0000 0.25280  0.75000  0.84070  Biso   1.000  C 
  C29      1.0000 0.00210  0.25000  0.30170  Biso   1.000  C 
  C30      1.0000 0.49790  0.75000  0.80170  Biso   1.000  C 
  C31      1.0000 0.50210  0.25000  0.19830  Biso   1.000  C 
  C32      1.0000 0.99790  0.75000  0.69830  Biso   1.000  C 
  C33      1.0000 0.56210  0.85460  0.06090  Biso   1.000  C 
  C34      1.0000 0.93790  0.14540  0.56090  Biso   1.000  C 
  C35      1.0000 0.06210  0.64540  0.43910  Biso   1.000  C 
  C36      1.0000 0.43790  0.35460  0.93910  Biso   1.000  C 
  C37      1.0000 0.43790  0.14540  0.93910  Biso   1.000  C 
  C38      1.0000 0.06210  0.85460  0.43910  Biso   1.000  C 
  C39      1.0000 0.93790  0.35460  0.56090  Biso   1.000  C 
  C40      1.0000 0.56210  0.64540  0.06090  Biso   1.000  C 
  H17      1.0000 0.52330  0.89840  0.08780  Biso   1.000  H 
  H18      1.0000 0.97670  0.10160  0.58780  Biso   1.000  H 
  H19      1.0000 0.02330  0.60160  0.41220  Biso   1.000  H 
  H20      1.0000 0.47670  0.39840  0.91220  Biso   1.000  H 
  H21      1.0000 0.47670  0.10160  0.91220  Biso   1.000  H 
  H22      1.0000 0.02330  0.89840  0.41220  Biso   1.000  H 
  H23      1.0000 0.97670  0.39840  0.58780  Biso   1.000  H 
  H24      1.0000 0.52330  0.60160  0.08780  Biso   1.000  H 
  H25      1.0000 0.56240  0.89840  0.00280  Biso   1.000  H 
  H26      1.0000 0.93760  0.10160  0.50280  Biso   1.000  H 
  H27      1.0000 0.06240  0.60160  0.49720  Biso   1.000  H 
  H28      1.0000 0.43760  0.39840  0.99720  Biso   1.000  H 
  H29      1.0000 0.43760  0.10160  0.99720  Biso   1.000  H 
  H30      1.0000 0.06240  0.89840  0.49720  Biso   1.000  H 
  H31      1.0000 0.93760  0.39840  0.50280  Biso   1.000  H 
  H32      1.0000 0.56240  0.60160  0.00280  Biso   1.000  H 
  C41      1.0000 0.67500  0.85530  0.06350  Biso   1.000  C 
  C42      1.0000 0.82500  0.14470  0.56350  Biso   1.000  C 
  C43      1.0000 0.17500  0.64470  0.43650  Biso   1.000  C 
  C44      1.0000 0.32500  0.35530  0.93650  Biso   1.000  C 
  C45      1.0000 0.32500  0.14470  0.93650  Biso   1.000  C 
  C46      1.0000 0.17500  0.85530  0.43650  Biso   1.000  C 
  C47      1.0000 0.82500  0.35530  0.56350  Biso   1.000  C 
  C48      1.0000 0.67500  0.64470  0.06350  Biso   1.000  C 
  H33      1.0000 0.67600  0.89910  0.00550  Biso   1.000  H 
  H34      1.0000 0.82400  0.10090  0.50550  Biso   1.000  H 
  H35      1.0000 0.17600  0.60090  0.49450  Biso   1.000  H 
  H36      1.0000 0.32400  0.39910  0.99450  Biso   1.000  H 
  H37      1.0000 0.32400  0.10090  0.99450  Biso   1.000  H 
  H38      1.0000 0.17600  0.89910  0.49450  Biso   1.000  H 
  H39      1.0000 0.82400  0.39910  0.50550  Biso   1.000  H 
  H40      1.0000 0.67600  0.60090  0.00550  Biso   1.000  H 
  H41      1.0000 0.71300  0.89910  0.09200  Biso   1.000  H 
  H42      1.0000 0.78700  0.10090  0.59200  Biso   1.000  H 
  H43      1.0000 0.21300  0.60090  0.40800  Biso   1.000  H 
  H44      1.0000 0.28700  0.39910  0.90800  Biso   1.000  H 
  H45      1.0000 0.28700  0.10090  0.90800  Biso   1.000  H 
  H46      1.0000 0.21300  0.89910  0.40800  Biso   1.000  H 
  H47      1.0000 0.78700  0.39910  0.59200  Biso   1.000  H 
  H48      1.0000 0.71300  0.60090  0.09200  Biso   1.000  H 
  C49      1.0000 0.61680  0.85790  0.19270  Biso   1.000  C 
  C50      1.0000 0.88320  0.14210  0.69270  Biso   1.000  C 
  C51      1.0000 0.11680  0.64210  0.30730  Biso   1.000  C 
  C52      1.0000 0.38320  0.35790  0.80730  Biso   1.000  C 
  C53      1.0000 0.38320  0.14210  0.80730  Biso   1.000  C 
  C54      1.0000 0.11680  0.85790  0.30730  Biso   1.000  C 
  C55      1.0000 0.88320  0.35790  0.69270  Biso   1.000  C 
  C56      1.0000 0.61680  0.64210  0.19270  Biso   1.000  C 
  H49      1.0000 0.65380  0.90200  0.22340  Biso   1.000  H 
  H50      1.0000 0.84620  0.09800  0.72340  Biso   1.000  H 
  H51      1.0000 0.15380  0.59800  0.27660  Biso   1.000  H 
  H52      1.0000 0.34620  0.40200  0.77660  Biso   1.000  H 
  H53      1.0000 0.34620  0.09800  0.77660  Biso   1.000  H 
  H54      1.0000 0.15380  0.90200  0.27660  Biso   1.000  H 
  H55      1.0000 0.84620  0.40200  0.72340  Biso   1.000  H 
  H56      1.0000 0.65380  0.59800  0.22340  Biso   1.000  H 
  H57      1.0000 0.57880  0.90200  0.22130  Biso   1.000  H 
  H58      1.0000 0.92120  0.09800  0.72130  Biso   1.000  H 
  H59      1.0000 0.07880  0.59800  0.27870  Biso   1.000  H 
  H60      1.0000 0.42120  0.40200  0.77870  Biso   1.000  H 
  H61      1.0000 0.42120  0.09800  0.77870  Biso   1.000  H 
  H62      1.0000 0.07880  0.90200  0.27870  Biso   1.000  H 
  H63      1.0000 0.92120  0.40200  0.72130  Biso   1.000  H 
  H64      1.0000 0.57880  0.59800  0.22130  Biso   1.000  H 
  C57      1.0000 0.65680  0.25000  0.91730  Biso   1.000  C 
  C58      1.0000 0.84320  0.75000  0.41730  Biso   1.000  C 
  C59      1.0000 0.15680  0.25000  0.58270  Biso   1.000  C 
  C60      1.0000 0.34320  0.75000  0.08270  Biso   1.000  C 
  H65      1.0000 0.69700  0.25000  0.94220  Biso   1.000  H 
  H66      1.0000 0.80300  0.75000  0.44220  Biso   1.000  H 
  H67      1.0000 0.19700  0.25000  0.55780  Biso   1.000  H 
  H68      1.0000 0.30300  0.75000  0.05780  Biso   1.000  H 
  C61      1.0000 0.71090  0.25000  0.78010  Biso   1.000  C 
  C62      1.0000 0.78910  0.75000  0.28010  Biso   1.000  C 
  C63      1.0000 0.21090  0.25000  0.71990  Biso   1.000  C 
  C64      1.0000 0.28910  0.75000  0.21990  Biso   1.000  C 
  H69      1.0000 0.70610  0.33480  0.73420  Biso   1.000  H 
  H70      1.0000 0.79390  0.66520  0.23420  Biso   1.000  H 
  H71      1.0000 0.20610  0.16520  0.76580  Biso   1.000  H 
  H72      1.0000 0.29390  0.83480  0.26580  Biso   1.000  H 
  H73      1.0000 0.29390  0.66520  0.26580  Biso   1.000  H 
  H74      1.0000 0.20610  0.33480  0.76580  Biso   1.000  H 
  H75      1.0000 0.79390  0.83480  0.23420  Biso   1.000  H 
  H76      1.0000 0.70610  0.16520  0.73420  Biso   1.000  H 
  C65      1.0000 0.59160  0.25000  0.78880  Biso   1.000  C 
  C66      1.0000 0.90840  0.75000  0.28880  Biso   1.000  C 
  C67      1.0000 0.09160  0.25000  0.71120  Biso   1.000  C 
  C68      1.0000 0.40840  0.75000  0.21120  Biso   1.000  C 
  Cd1      1.0000 0.61778  0.25000  0.11233  Biso   1.000  Cd
  Cd2      1.0000 0.88222  0.75000  0.61233  Biso   1.000  Cd
  Cd3      1.0000 0.11778  0.25000  0.38767  Biso   1.000  Cd
  Cd4      1.0000 0.38222  0.75000  0.88767  Biso   1.000  Cd
  N1       1.0000 0.61810  0.92750  0.10630  Biso   1.000  N 
  N2       1.0000 0.88190  0.07250  0.60630  Biso   1.000  N 
  N3       1.0000 0.11810  0.57250  0.39370  Biso   1.000  N 
  N4       1.0000 0.38190  0.42750  0.89370  Biso   1.000  N 
  N5       1.0000 0.38190  0.07250  0.89370  Biso   1.000  N 
  N6       1.0000 0.11810  0.92750  0.39370  Biso   1.000  N 
  N7       1.0000 0.88190  0.42750  0.60630  Biso   1.000  N 
  N8       1.0000 0.61810  0.57250  0.10630  Biso   1.000  N 
  N9       1.0000 0.65270  0.25000  0.83220  Biso   1.000  N 
  N10      1.0000 0.84730  0.75000  0.33220  Biso   1.000  N 
  N11      1.0000 0.15270  0.25000  0.66780  Biso   1.000  N 
  N12      1.0000 0.34730  0.75000  0.16780  Biso   1.000  N 
  O1       1.0000 0.70110  0.25000  0.21050  Biso   1.000  O 
  O2       1.0000 0.79890  0.75000  0.71050  Biso   1.000  O 
  O3       1.0000 0.20110  0.25000  0.28950  Biso   1.000  O 
  O4       1.0000 0.29890  0.75000  0.78950  Biso   1.000  O 
  O5       1.0000 0.73940  0.25000  0.07950  Biso   1.000  O 
  O6       1.0000 0.76060  0.75000  0.57950  Biso   1.000  O 
  O7       1.0000 0.23940  0.25000  0.42050  Biso   1.000  O 
  O8       1.0000 0.26060  0.75000  0.92050  Biso   1.000  O 
  O9       1.0000 0.00580  0.25000  0.38220  Biso   1.000  O 
  O10      1.0000 0.49420  0.75000  0.88220  Biso   1.000  O 
  O11      1.0000 0.50580  0.25000  0.11780  Biso   1.000  O 
  O12      1.0000 0.99420  0.75000  0.61780  Biso   1.000  O 
  O13      1.0000 0.05020  0.25000  0.25690  Biso   1.000  O 
  O14      1.0000 0.44980  0.75000  0.75690  Biso   1.000  O 
  O15      1.0000 0.55020  0.25000  0.24310  Biso   1.000  O 
  O16      1.0000 0.94980  0.75000  0.74310  Biso   1.000  O 
  O17      1.0000 0.61070  0.25000  0.96230  Biso   1.000  O 
  O18      1.0000 0.88930  0.75000  0.46230  Biso   1.000  O 
  O19      1.0000 0.11070  0.25000  0.53770  Biso   1.000  O 
  O20      1.0000 0.38930  0.75000  0.03770  Biso   1.000  O 
  H77      1.0000 0.75646  0.25000  0.81346  Biso   1.000  H 
  H78      1.0000 0.74354  0.75000  0.31346  Biso   1.000  H 
  H79      1.0000 0.25646  0.25000  0.68654  Biso   1.000  H 
  H80      1.0000 0.24354  0.75000  0.18654  Biso   1.000  H 
  H81      1.0000 0.56473  0.37099  0.80663  Biso   1.000  H 
  H82      1.0000 0.93527  0.62901  0.30663  Biso   1.000  H 
  H83      1.0000 0.06473  0.12901  0.69337  Biso   1.000  H 
  H84      1.0000 0.43527  0.87099  0.19337  Biso   1.000  H 
  H85      1.0000 0.43527  0.62901  0.19337  Biso   1.000  H 
  H86      1.0000 0.06473  0.37099  0.69337  Biso   1.000  H 
  H87      1.0000 0.93527  0.87099  0.30663  Biso   1.000  H 
  H88      1.0000 0.56473  0.12901  0.80663  Biso   1.000  H 
  H89      1.0000 0.59946  0.25000  0.72054  Biso   1.000  H 
  H90      1.0000 0.90054  0.75000  0.22054  Biso   1.000  H 
  H91      1.0000 0.09946  0.25000  0.77946  Biso   1.000  H 
  H92      1.0000 0.40054  0.75000  0.27946  Biso   1.000  H 
