data_image0
_cell_length_a       12.145
_cell_length_b       12.145
_cell_length_c       15.991
_cell_angle_alpha    90
_cell_angle_beta     90
_cell_angle_gamma    90

_symmetry_space_group_name_H-M    "P 1"
_symmetry_int_tables_number       1

loop_
  _symmetry_equiv_pos_as_xyz
  'x, y, z'

loop_
  _atom_site_label
  _atom_site_occupancy
  _atom_site_fract_x
  _atom_site_fract_y
  _atom_site_fract_z
  _atom_site_thermal_displace_type
  _atom_site_B_iso_or_equiv
  _atom_site_type_symbol
  V1       1.0000 0.56430  0.29130  0.02060  Biso   1.000  V 
  O1       1.0000 0.41880  0.37730  0.03780  Biso   1.000  O 
  C1       1.0000 0.39830  0.39840  0.11390  Biso   1.000  C 
  C2       1.0000 0.48900  0.36290  0.17650  Biso   1.000  C 
  O2       1.0000 0.57510  0.32260  0.14520  Biso   1.000  O 
  O3       1.0000 0.46920  0.37840  0.25130  Biso   1.000  O 
  V2       1.0000 0.29130  0.43570  0.27060  Biso   1.000  V 
  O4       1.0000 0.31630  0.44190  0.14240  Biso   1.000  O 
  Cl1      1.0000 0.24630  0.25000  0.26200  Biso   1.000  Cl
  O5       1.0000 0.17130  0.48940  0.26870  Biso   1.000  O 
  O6       1.0000 0.32260  0.42490  0.39520  Biso   1.000  O 
  C3       1.0000 0.36290  0.51100  0.42650  Biso   1.000  C 
  O7       1.0000 0.37840  0.53080  0.50130  Biso   1.000  O 
  V3       1.0000 0.43570  0.70870  0.52060  Biso   1.000  V 
  O8       1.0000 0.44190  0.68370  0.39240  Biso   1.000  O 
  C4       1.0000 0.39840  0.60170  0.36390  Biso   1.000  C 
  O9       1.0000 0.37730  0.58120  0.28780  Biso   1.000  O 
  Cl2      1.0000 0.25000  0.75370  0.51200  Biso   1.000  Cl
  O10      1.0000 0.48940  0.82870  0.51870  Biso   1.000  O 
  O11      1.0000 0.42490  0.67740  0.64520  Biso   1.000  O 
  C5       1.0000 0.51100  0.63710  0.67650  Biso   1.000  C 
  O12      1.0000 0.53080  0.62160  0.75130  Biso   1.000  O 
  V4       1.0000 0.70870  0.56430  0.77060  Biso   1.000  V 
  O13      1.0000 0.62270  0.41880  0.78780  Biso   1.000  O 
  C6       1.0000 0.60160  0.39830  0.86390  Biso   1.000  C 
  C7       1.0000 0.63710  0.48900  0.92650  Biso   1.000  C 
  O14      1.0000 0.62160  0.46920  0.00130  Biso   1.000  O 
  O15      1.0000 0.67740  0.57510  0.89520  Biso   1.000  O 
  O16      1.0000 0.55810  0.31630  0.89240  Biso   1.000  O 
  O17      1.0000 0.68370  0.55810  0.64240  Biso   1.000  O 
  C8       1.0000 0.60170  0.60160  0.61390  Biso   1.000  C 
  O18      1.0000 0.58120  0.62270  0.53780  Biso   1.000  O 
  O19      1.0000 0.82870  0.51060  0.76870  Biso   1.000  O 
  Cl3      1.0000 0.75370  0.75000  0.76200  Biso   1.000  Cl
  O20      1.0000 0.51060  0.17130  0.01870  Biso   1.000  O 
  Cl4      1.0000 0.75000  0.24630  0.01200  Biso   1.000  Cl
