data_image0
_cell_length_a       14.961
_cell_length_b       15.335
_cell_length_c       16.021
_cell_angle_alpha    99.33
_cell_angle_beta     116.22
_cell_angle_gamma    108.91

_symmetry_space_group_name_H-M    "P 1"
_symmetry_int_tables_number       1

loop_
  _symmetry_equiv_pos_as_xyz
  'x, y, z'

loop_
  _atom_site_label
  _atom_site_occupancy
  _atom_site_fract_x
  _atom_site_fract_y
  _atom_site_fract_z
  _atom_site_thermal_displace_type
  _atom_site_B_iso_or_equiv
  _atom_site_type_symbol
  Mo1      1.0000 0.05293  0.75333  0.36199  Biso   1.000  Mo
  S1       1.0000 0.01645  0.78369  0.48506  Biso   1.000  S 
  Cu1      1.0000 0.20282  0.84418  0.56171  Biso   1.000  Cu
  S2       1.0000 0.24165  0.82022  0.44160  Biso   1.000  S 
  Cu2      1.0000 0.17688  0.65557  0.38369  Biso   1.000  Cu
  N1       1.0000 0.24470  0.62890  0.29900  Biso   1.000  N 
  C1       1.0000 0.22300  0.53700  0.25430  Biso   1.000  C 
  H1       1.0000 0.17230  0.48410  0.25850  Biso   1.000  H 
  C2       1.0000 0.27040  0.51450  0.20220  Biso   1.000  C 
  H2       1.0000 0.25140  0.44760  0.17080  Biso   1.000  H 
  C3       1.0000 0.34530  0.58960  0.19590  Biso   1.000  C 
  C4       1.0000 0.36940  0.68530  0.24330  Biso   1.000  C 
  C5       1.0000 0.31830  0.70260  0.29320  Biso   1.000  C 
  H3       1.0000 0.33560  0.76880  0.32470  Biso   1.000  H 
  H4       1.0000 0.42140  0.73920  0.24140  Biso   1.000  H 
  C6       1.0000 0.39680  0.56680  0.13940  Biso   1.000  C 
  H5       1.0000 0.46940  0.63831  0.18609  Biso   1.000  H 
  C7       1.0000 0.46310  0.51930  0.17320  Biso   1.000  C 
  C8       1.0000 0.50090  0.50410  0.26710  Biso   1.000  C 
  H6       1.0000 0.48610  0.52560  0.31660  Biso   1.000  H 
  C9       1.0000 0.56020  0.45430  0.27160  Biso   1.000  C 
  C10      1.0000 0.56210  0.43710  0.18260  Biso   1.000  C 
  N2       1.0000 0.50510  0.48000  0.12460  Biso   1.000  N 
  H7       1.0000 0.49574  0.48227  0.05838  Biso   1.000  H 
  C11      1.0000 0.61550  0.38570  0.15790  Biso   1.000  C 
  H8       1.0000 0.69527  0.45114  0.20617  Biso   1.000  H 
  C12      1.0000 0.63160  0.38280  0.07900  Biso   1.000  C 
  C13      1.0000 0.69250  0.33680  0.05700  Biso   1.000  C 
  H9       1.0000 0.72590  0.30100  0.09250  Biso   1.000  H 
  C14      1.0000 0.69360  0.35330  0.97710  Biso   1.000  C 
  C15      1.0000 0.62750  0.40610  0.94480  Biso   1.000  C 
  C16      1.0000 0.60320  0.43320  0.86060  Biso   1.000  C 
  C17      1.0000 0.53690  0.48070  0.82680  Biso   1.000  C 
  C18      1.0000 0.49910  0.49590  0.73290  Biso   1.000  C 
  H10      1.0000 0.51390  0.47440  0.68340  Biso   1.000  H 
  C19      1.0000 0.43980  0.54570  0.72840  Biso   1.000  C 
  H11      1.0000 0.40470  0.56610  0.67490  Biso   1.000  H 
  C20      1.0000 0.43790  0.56290  0.81740  Biso   1.000  C 
  N3       1.0000 0.49490  0.52000  0.87540  Biso   1.000  N 
  H12      1.0000 0.50426  0.51773  0.94162  Biso   1.000  H 
  C21      1.0000 0.38450  0.61430  0.84210  Biso   1.000  C 
  C22      1.0000 0.36840  0.61720  0.92100  Biso   1.000  C 
  C23      1.0000 0.30750  0.66320  0.94300  Biso   1.000  C 
  H13      1.0000 0.27410  0.69900  0.90750  Biso   1.000  H 
  C24      1.0000 0.30640  0.64670  0.02290  Biso   1.000  C 
  H14      1.0000 0.26950  0.66590  0.05220  Biso   1.000  H 
  C25      1.0000 0.37250  0.59390  0.05520  Biso   1.000  C 
  N4       1.0000 0.40770  0.57620  0.99180  Biso   1.000  N 
  H15      1.0000 0.45427  0.53959  0.99587  Biso   1.000  H 
  H16      1.0000 0.30473  0.54886  0.79383  Biso   1.000  H 
  C26      1.0000 0.34280  0.66940  0.77760  Biso   1.000  C 
  C27      1.0000 0.23040  0.64940  0.72700  Biso   1.000  C 
  H17      1.0000 0.17850  0.59970  0.73320  Biso   1.000  H 
  C28      1.0000 0.19550  0.70200  0.66850  Biso   1.000  C 
  H18      1.0000 0.11850  0.68590  0.63380  Biso   1.000  H 
  N5       1.0000 0.26300  0.77410  0.65750  Biso   1.000  N 
  C29      1.0000 0.37140  0.79370  0.70660  Biso   1.000  C 
  H19      1.0000 0.42180  0.84450  0.70000  Biso   1.000  H 
  C30      1.0000 0.41250  0.74380  0.76540  Biso   1.000  C 
  H20      1.0000 0.48960  0.76060  0.79820  Biso   1.000  H 
  H21      1.0000 0.53060  0.36169  0.81391  Biso   1.000  H 
  C31      1.0000 0.65470  0.41040  0.80410  Biso   1.000  C 
  C32      1.0000 0.63060  0.31470  0.75670  Biso   1.000  C 
  H22      1.0000 0.57860  0.26080  0.75860  Biso   1.000  H 
  C33      1.0000 0.68170  0.29740  0.70680  Biso   1.000  C 
  H23      1.0000 0.66440  0.23120  0.67530  Biso   1.000  H 
  N6       1.0000 0.75530  0.37110  0.70100  Biso   1.000  N 
  C34      1.0000 0.77700  0.46300  0.74570  Biso   1.000  C 
  C35      1.0000 0.72960  0.48550  0.79780  Biso   1.000  C 
  H24      1.0000 0.74860  0.55240  0.82920  Biso   1.000  H 
  H25      1.0000 0.82770  0.51590  0.74150  Biso   1.000  H 
  Cu3      1.0000 0.82312  0.34443  0.61631  Biso   1.000  Cu
  S3       1.0000 0.75835  0.17978  0.55840  Biso   1.000  S 
  Mo2      1.0000 0.94707  0.24667  0.63801  Biso   1.000  Mo
  Cu4      1.0000 0.79718  0.15582  0.43829  Biso   1.000  Cu
  N7       1.0000 0.73700  0.22590  0.34250  Biso   1.000  N 
  C36      1.0000 0.62860  0.20630  0.29340  Biso   1.000  C 
  C37      1.0000 0.58750  0.25620  0.23460  Biso   1.000  C 
  H26      1.0000 0.51040  0.23940  0.20180  Biso   1.000  H 
  C38      1.0000 0.65720  0.33060  0.22240  Biso   1.000  C 
  C39      1.0000 0.76960  0.35060  0.27300  Biso   1.000  C 
  C40      1.0000 0.80450  0.29800  0.33150  Biso   1.000  C 
  H27      1.0000 0.88150  0.31410  0.36620  Biso   1.000  H 
  H28      1.0000 0.82150  0.40030  0.26680  Biso   1.000  H 
  H29      1.0000 0.57820  0.15550  0.30000  Biso   1.000  H 
  N8       1.0000 0.72700  0.01380  0.35820  Biso   1.000  N 
  C41      1.0000 0.68330  0.93440  0.30650  Biso   1.000  C 
  S4       1.0000 0.61670  0.81791  0.23136  Biso   1.000  S 
  S5       1.0000 0.98355  0.21631  0.51494  Biso   1.000  S 
  Cu5      1.0000 0.02952  0.37579  0.57087  Biso   1.000  Cu
  N9       1.0000 0.10220  0.45830  0.52340  Biso   1.000  N 
  C42      1.0000 0.16460  0.50920  0.50840  Biso   1.000  C 
  S6       1.0000 0.25883  0.57969  0.49092  Biso   1.000  S 
  S7       1.0000 0.00990  0.41483  0.69868  Biso   1.000  S 
  C43      1.0000 0.94560  0.18740  0.76560  Biso   1.000  C 
  C44      1.0000 0.93790  0.11240  0.69430  Biso   1.000  C 
  C45      1.0000 0.84470  0.00960  0.63480  Biso   1.000  C 
  H30      1.0000 0.77460  0.01050  0.62160  Biso   1.000  H 
  H31      1.0000 0.83910  0.98480  0.57150  Biso   1.000  H 
  H32      1.0000 0.85960  0.96640  0.67260  Biso   1.000  H 
  C46      1.0000 0.03940  0.14830  0.69490  Biso   1.000  C 
  C47      1.0000 0.06990  0.08720  0.63950  Biso   1.000  C 
  H33      1.0000 0.11530  0.06140  0.68380  Biso   1.000  H 
  H34      1.0000 0.11250  0.12820  0.61650  Biso   1.000  H 
  H35      1.0000 0.00200  0.03200  0.58200  Biso   1.000  H 
  C48      1.0000 0.10740  0.24650  0.76470  Biso   1.000  C 
  C49      1.0000 0.05150  0.27020  0.81070  Biso   1.000  C 
  C50      1.0000 0.10040  0.36030  0.89810  Biso   1.000  C 
  H36      1.0000 0.14180  0.34980  0.95970  Biso   1.000  H 
  H37      1.0000 0.04060  0.37370  0.89790  Biso   1.000  H 
  H38      1.0000 0.15100  0.41670  0.89410  Biso   1.000  H 
  C51      1.0000 0.22260  0.31280  0.79130  Biso   1.000  C 
  H39      1.0000 0.22800  0.29940  0.73220  Biso   1.000  H 
  H40      1.0000 0.27740  0.30040  0.84390  Biso   1.000  H 
  H41      1.0000 0.23750  0.38200  0.81510  Biso   1.000  H 
  C52      1.0000 0.86300  0.17820  0.79760  Biso   1.000  C 
  H42      1.0000 0.78820  0.13010  0.74210  Biso   1.000  H 
  H43      1.0000 0.88340  0.15600  0.85440  Biso   1.000  H 
  H44      1.0000 0.86390  0.24260  0.81710  Biso   1.000  H 
  S8       1.0000 0.74117  0.42031  0.50908  Biso   1.000  S 
  C53      1.0000 0.83540  0.49080  0.49160  Biso   1.000  C 
  N10      1.0000 0.89780  0.54170  0.47660  Biso   1.000  N 
  Cu6      1.0000 0.97048  0.62421  0.42913  Biso   1.000  Cu
  S9       1.0000 0.99010  0.58517  0.30132  Biso   1.000  S 
  N11      1.0000 0.59230  0.42380  0.00820  Biso   1.000  N 
  H45      1.0000 0.54573  0.46041  0.00413  Biso   1.000  H 
  H46      1.0000 0.73050  0.33410  0.94780  Biso   1.000  H 
  H47      1.0000 0.59530  0.43390  0.32510  Biso   1.000  H 
  N12      1.0000 0.27300  0.98620  0.64180  Biso   1.000  N 
  C54      1.0000 0.31670  0.06560  0.69350  Biso   1.000  C 
  S10      1.0000 0.38330  0.18209  0.76864  Biso   1.000  S 
  C55      1.0000 0.05440  0.81260  0.23440  Biso   1.000  C 
  C56      1.0000 0.13700  0.82180  0.20240  Biso   1.000  C 
  H48      1.0000 0.13610  0.75740  0.18290  Biso   1.000  H 
  H49      1.0000 0.21180  0.86990  0.25790  Biso   1.000  H 
  H50      1.0000 0.11660  0.84400  0.14560  Biso   1.000  H 
  C57      1.0000 0.06210  0.88760  0.30570  Biso   1.000  C 
  C58      1.0000 0.15530  0.99040  0.36520  Biso   1.000  C 
  H51      1.0000 0.22540  0.98950  0.37840  Biso   1.000  H 
  H52      1.0000 0.14040  0.03360  0.32740  Biso   1.000  H 
  H53      1.0000 0.16090  0.01520  0.42850  Biso   1.000  H 
  C59      1.0000 0.96060  0.85170  0.30510  Biso   1.000  C 
  C60      1.0000 0.89260  0.75350  0.23530  Biso   1.000  C 
  C61      1.0000 0.77740  0.68720  0.20870  Biso   1.000  C 
  H54      1.0000 0.76250  0.61800  0.18490  Biso   1.000  H 
  H55      1.0000 0.72260  0.69960  0.15610  Biso   1.000  H 
  H56      1.0000 0.77200  0.70060  0.26780  Biso   1.000  H 
  C62      1.0000 0.94850  0.72980  0.18930  Biso   1.000  C 
  C63      1.0000 0.89960  0.63970  0.10190  Biso   1.000  C 
  H57      1.0000 0.84900  0.58330  0.10590  Biso   1.000  H 
  H58      1.0000 0.85820  0.65020  0.04030  Biso   1.000  H 
  H59      1.0000 0.95940  0.62630  0.10210  Biso   1.000  H 
  C64      1.0000 0.93010  0.91280  0.36050  Biso   1.000  C 
  H60      1.0000 0.88750  0.87180  0.38350  Biso   1.000  H 
  H61      1.0000 0.88470  0.93860  0.31620  Biso   1.000  H 
  H62      1.0000 0.99800  0.96800  0.41800  Biso   1.000  H 
