data_image0
_cell_length_a       10.1955
_cell_length_b       26.678
_cell_length_c       20.1328
_cell_angle_alpha    90
_cell_angle_beta     92.01
_cell_angle_gamma    90

_symmetry_space_group_name_H-M    "P 1"
_symmetry_int_tables_number       1

loop_
  _symmetry_equiv_pos_as_xyz
  'x, y, z'

loop_
  _atom_site_label
  _atom_site_occupancy
  _atom_site_fract_x
  _atom_site_fract_y
  _atom_site_fract_z
  _atom_site_thermal_displace_type
  _atom_site_B_iso_or_equiv
  _atom_site_type_symbol
  Zn1      1.0000 0.45903  0.03641  0.10145  Biso   1.000  Zn
  O1       1.0000 0.33820  0.03218  0.02610  Biso   1.000  O 
  P1       1.0000 0.36212  0.04586  0.95393  Biso   1.000  P 
  O2       1.0000 0.47190  0.08362  0.94640  Biso   1.000  O 
  Zn2      1.0000 0.51688  0.15355  0.95452  Biso   1.000  Zn
  O3       1.0000 0.41650  0.19780  0.89710  Biso   1.000  O 
  P2       1.0000 0.27248  0.18856  0.88123  Biso   1.000  P 
  H1       1.0000 0.27203  0.15354  0.83278  Biso   1.000  H 
  O4       1.0000 0.20440  0.23349  0.85080  Biso   1.000  O 
  Zn3      1.0000 0.17503  0.29943  0.88898  Biso   1.000  Zn
  O5       1.0000 0.07080  0.34150  0.83090  Biso   1.000  O 
  P3       1.0000 0.95140  0.37408  0.83500  Biso   1.000  P 
  O6       1.0000 0.86430  0.36000  0.89040  Biso   1.000  O 
  Zn4      1.0000 0.86873  0.36450  0.98443  Biso   1.000  Zn
  N1       1.0000 0.69200  0.38270  0.01880  Biso   1.000  N 
  C1       1.0000 0.59330  0.35110  0.03740  Biso   1.000  C 
  H2       1.0000 0.58930  0.31691  0.02834  Biso   1.000  H 
  C2       1.0000 0.50370  0.37680  0.07060  Biso   1.000  C 
  H3       1.0000 0.42816  0.36412  0.08909  Biso   1.000  H 
  N2       1.0000 0.54640  0.42600  0.07190  Biso   1.000  N 
  C3       1.0000 0.65950  0.42750  0.03980  Biso   1.000  C 
  H4       1.0000 0.70835  0.45644  0.03334  Biso   1.000  H 
  C4       1.0000 0.48760  0.46660  0.10650  Biso   1.000  C 
  C5       1.0000 0.52560  0.51550  0.09230  Biso   1.000  C 
  H5       1.0000 0.58527  0.52208  0.05954  Biso   1.000  H 
  C6       1.0000 0.47210  0.55390  0.12850  Biso   1.000  C 
  N3       1.0000 0.51480  0.60380  0.11930  Biso   1.000  N 
  C7       1.0000 0.44710  0.64730  0.13060  Biso   1.000  C 
  H6       1.0000 0.35914  0.64977  0.14094  Biso   1.000  H 
  C8       1.0000 0.53120  0.68550  0.12410  Biso   1.000  C 
  H7       1.0000 0.51081  0.71933  0.12760  Biso   1.000  H 
  N4       1.0000 0.65140  0.66630  0.11140  Biso   1.000  N 
  C9       1.0000 0.63790  0.61830  0.10860  Biso   1.000  C 
  H8       1.0000 0.70602  0.59631  0.10007  Biso   1.000  H 
  Zn5      1.0000 0.82497  0.70057  0.11102  Biso   1.000  Zn
  O7       1.0000 0.87020  0.69790  0.01990  Biso   1.000  O 
  P4       1.0000 0.94980  0.71524  0.96421  Biso   1.000  P 
  H9       1.0000 0.90709  0.68844  0.91071  Biso   1.000  H 
  O8       1.0000 0.93560  0.76883  0.94470  Biso   1.000  O 
  Zn6      1.0000 0.83605  0.82550  0.97059  Biso   1.000  Zn
  N5       1.0000 0.96420  0.88040  0.95510  Biso   1.000  N 
  C10      1.0000 0.93710  0.92540  0.93380  Biso   1.000  C 
  H10      1.0000 0.85293  0.93897  0.93211  Biso   1.000  H 
  N6       1.0000 0.04270  0.95000  0.91460  Biso   1.000  N 
  C11      1.0000 0.14750  0.91770  0.92460  Biso   1.000  C 
  H11      1.0000 0.23490  0.92394  0.91570  Biso   1.000  H 
  C12      1.0000 0.09830  0.87590  0.94920  Biso   1.000  C 
  H12      1.0000 0.14722  0.84766  0.96088  Biso   1.000  H 
  C13      1.0000 0.04080  0.99640  0.87980  Biso   1.000  C 
  C14      1.0000 0.96090  0.03430  0.89840  Biso   1.000  C 
  H13      1.0000 0.90855  0.03093  0.93499  Biso   1.000  H 
  C15      1.0000 0.95950  0.07820  0.86120  Biso   1.000  C 
  N7       1.0000 0.87260  0.11690  0.87990  Biso   1.000  N 
  C16      1.0000 0.89150  0.16780  0.87630  Biso   1.000  C 
  H14      1.0000 0.96462  0.18427  0.86055  Biso   1.000  H 
  C17      1.0000 0.78320  0.18900  0.90000  Biso   1.000  C 
  H15      1.0000 0.76956  0.22337  0.90368  Biso   1.000  H 
  N8       1.0000 0.69560  0.15290  0.91810  Biso   1.000  N 
  C18      1.0000 0.75480  0.10990  0.90500  Biso   1.000  C 
  H16      1.0000 0.71837  0.07850  0.91235  Biso   1.000  H 
  C19      1.0000 0.03990  0.08430  0.80840  Biso   1.000  C 
  C20      1.0000 0.12270  0.04560  0.79250  Biso   1.000  C 
  N9       1.0000 0.21300  0.05110  0.74000  Biso   1.000  N 
  C21      1.0000 0.27800  0.01240  0.71210  Biso   1.000  C 
  N10      1.0000 0.35770  0.02940  0.66690  Biso   1.000  N 
  C22      1.0000 0.34230  0.08060  0.66630  Biso   1.000  C 
  H17      1.0000 0.38645  0.10224  0.63868  Biso   1.000  H 
  C23      1.0000 0.25590  0.09510  0.71050  Biso   1.000  C 
  H18      1.0000 0.22979  0.12769  0.71970  Biso   1.000  H 
  Zn7      1.0000 0.46846  0.98365  0.61061  Biso   1.000  Zn
  O9       1.0000 0.34590  0.96131  0.54010  Biso   1.000  O 
  P5       1.0000 0.38829  0.94116  0.47418  Biso   1.000  P 
  H19      1.0000 0.30073  0.90534  0.45609  Biso   1.000  H 
  O10      1.0000 0.52040  0.91690  0.47880  Biso   1.000  O 
  Zn8      1.0000 0.63127  0.86450  0.51557  Biso   1.000  Zn
  O11      1.0000 0.59400  0.80110  0.47170  Biso   1.000  O 
  P6       1.0000 0.44980  0.78476  0.46421  Biso   1.000  P 
  H20      1.0000 0.40709  0.81156  0.41071  Biso   1.000  H 
  O12      1.0000 0.43560  0.73117  0.44470  Biso   1.000  O 
  Zn9      1.0000 0.33605  0.67450  0.47059  Biso   1.000  Zn
  N11      1.0000 0.46420  0.61960  0.45510  Biso   1.000  N 
  C24      1.0000 0.43710  0.57460  0.43380  Biso   1.000  C 
  H21      1.0000 0.35293  0.56103  0.43211  Biso   1.000  H 
  N12      1.0000 0.54270  0.55000  0.41460  Biso   1.000  N 
  C25      1.0000 0.54080  0.50360  0.37980  Biso   1.000  C 
  C26      1.0000 0.46090  0.46570  0.39840  Biso   1.000  C 
  H22      1.0000 0.40855  0.46907  0.43499  Biso   1.000  H 
  C27      1.0000 0.45950  0.42180  0.36120  Biso   1.000  C 
  C28      1.0000 0.53990  0.41570  0.30840  Biso   1.000  C 
  H23      1.0000 0.53842  0.38615  0.28393  Biso   1.000  H 
  C29      1.0000 0.62270  0.45440  0.29250  Biso   1.000  C 
  N13      1.0000 0.71300  0.44890  0.24000  Biso   1.000  N 
  C30      1.0000 0.75590  0.40490  0.21050  Biso   1.000  C 
  C31      1.0000 0.84230  0.41940  0.16630  Biso   1.000  C 
  H24      1.0000 0.88645  0.39776  0.13868  Biso   1.000  H 
  N14      1.0000 0.85770  0.47060  0.16690  Biso   1.000  N 
  Zn10     1.0000 0.96846  0.51635  0.11061  Biso   1.000  Zn
  O13      1.0000 0.84590  0.53869  0.04010  Biso   1.000  O 
  P7       1.0000 0.88829  0.55884  0.97418  Biso   1.000  P 
  H25      1.0000 0.80073  0.59466  0.95609  Biso   1.000  H 
  O14      1.0000 0.02040  0.58310  0.97880  Biso   1.000  O 
  Zn11     1.0000 0.13127  0.63550  0.01557  Biso   1.000  Zn
  O15      1.0000 0.13570  0.64000  0.10960  Biso   1.000  O 
  P8       1.0000 0.04860  0.62592  0.16500  Biso   1.000  P 
  H26      1.0000 0.11987  0.63599  0.22126  Biso   1.000  H 
  O16      1.0000 0.01750  0.57180  0.16710  Biso   1.000  O 
  O17      1.0000 0.92920  0.65850  0.16910  Biso   1.000  O 
  N15      1.0000 0.30800  0.61730  0.98120  Biso   1.000  N 
  C32      1.0000 0.40670  0.64890  0.96260  Biso   1.000  C 
  H27      1.0000 0.41070  0.68309  0.97167  Biso   1.000  H 
  C33      1.0000 0.49630  0.62320  0.92940  Biso   1.000  C 
  H28      1.0000 0.57184  0.63588  0.91091  Biso   1.000  H 
  N16      1.0000 0.45360  0.57400  0.92810  Biso   1.000  N 
  C34      1.0000 0.34050  0.57250  0.96020  Biso   1.000  C 
  H29      1.0000 0.29165  0.54356  0.96666  Biso   1.000  H 
  C35      1.0000 0.51240  0.53340  0.89350  Biso   1.000  C 
  C36      1.0000 0.47440  0.48450  0.90770  Biso   1.000  C 
  H30      1.0000 0.41473  0.47792  0.94046  Biso   1.000  H 
  C37      1.0000 0.52790  0.44610  0.87150  Biso   1.000  C 
  N17      1.0000 0.48520  0.39620  0.88070  Biso   1.000  N 
  C38      1.0000 0.36210  0.38170  0.89140  Biso   1.000  C 
  N18      1.0000 0.34860  0.33370  0.88860  Biso   1.000  N 
  C39      1.0000 0.46880  0.31450  0.87590  Biso   1.000  C 
  H31      1.0000 0.48919  0.28067  0.87240  Biso   1.000  H 
  C40      1.0000 0.55290  0.35270  0.86940  Biso   1.000  C 
  H32      1.0000 0.64086  0.35023  0.85906  Biso   1.000  H 
  H33      1.0000 0.29398  0.40369  0.89993  Biso   1.000  H 
  C41      1.0000 0.62170  0.45500  0.82520  Biso   1.000  C 
  H34      1.0000 0.65946  0.42854  0.80263  Biso   1.000  H 
  C42      1.0000 0.65840  0.50350  0.81290  Biso   1.000  C 
  C43      1.0000 0.60510  0.54390  0.84590  Biso   1.000  C 
  H35      1.0000 0.63002  0.57667  0.83673  Biso   1.000  H 
  N19      1.0000 0.75250  0.51240  0.76380  Biso   1.000  N 
  C44      1.0000 0.83400  0.55250  0.75850  Biso   1.000  C 
  H36      1.0000 0.83713  0.58088  0.78536  Biso   1.000  H 
  C45      1.0000 0.90910  0.54280  0.70640  Biso   1.000  C 
  H37      1.0000 0.97461  0.56365  0.69119  Biso   1.000  H 
  N20      1.0000 0.87440  0.49740  0.67910  Biso   1.000  N 
  C46      1.0000 0.78260  0.48000  0.71450  Biso   1.000  C 
  H38      1.0000 0.74199  0.44913  0.70744  Biso   1.000  H 
  Zn12     1.0000 0.95903  0.46359  0.60145  Biso   1.000  Zn
  O18      1.0000 0.99980  0.39506  0.62580  Biso   1.000  O 
  P9       1.0000 0.95189  0.34428  0.60299  Biso   1.000  P 
  H39      1.0000 0.97882  0.31263  0.65381  Biso   1.000  H 
  O19      1.0000 0.80550  0.34410  0.59160  Biso   1.000  O 
  Zn13     1.0000 0.66395  0.32550  0.52941  Biso   1.000  Zn
  O20      1.0000 0.70530  0.33320  0.43830  Biso   1.000  O 
  P10      1.0000 0.77248  0.31144  0.38123  Biso   1.000  P 
  O21      1.0000 0.70440  0.26651  0.35080  Biso   1.000  O 
  Zn14     1.0000 0.67503  0.20057  0.38898  Biso   1.000  Zn
  O22      1.0000 0.57080  0.15850  0.33090  Biso   1.000  O 
  P11      1.0000 0.45140  0.12592  0.33500  Biso   1.000  P 
  O23      1.0000 0.48250  0.07180  0.33290  Biso   1.000  O 
  Zn15     1.0000 0.53154  0.01635  0.38939  Biso   1.000  Zn
  O24      1.0000 0.65410  0.03869  0.45990  Biso   1.000  O 
  P12      1.0000 0.61171  0.05884  0.52582  Biso   1.000  P 
  H40      1.0000 0.69927  0.09466  0.54391  Biso   1.000  H 
  O25      1.0000 0.47960  0.08310  0.52120  Biso   1.000  O 
  Zn16     1.0000 0.36873  0.13550  0.48443  Biso   1.000  Zn
  O26      1.0000 0.36430  0.14000  0.39040  Biso   1.000  O 
  O27      1.0000 0.40600  0.19890  0.52830  Biso   1.000  O 
  P13      1.0000 0.55020  0.21524  0.53579  Biso   1.000  P 
  H41      1.0000 0.59291  0.18844  0.58929  Biso   1.000  H 
  O28      1.0000 0.56440  0.26883  0.55530  Biso   1.000  O 
  O29      1.0000 0.62980  0.19790  0.48010  Biso   1.000  O 
  N21      1.0000 0.19200  0.11730  0.51880  Biso   1.000  N 
  C47      1.0000 0.09330  0.14890  0.53740  Biso   1.000  C 
  H42      1.0000 0.08930  0.18309  0.52833  Biso   1.000  H 
  C48      1.0000 0.00370  0.12320  0.57060  Biso   1.000  C 
  H43      1.0000 0.92816  0.13588  0.58909  Biso   1.000  H 
  N22      1.0000 0.04640  0.07400  0.57190  Biso   1.000  N 
  C49      1.0000 0.15950  0.07250  0.53980  Biso   1.000  C 
  H44      1.0000 0.20835  0.04356  0.53334  Biso   1.000  H 
  C50      1.0000 0.98760  0.03340  0.60650  Biso   1.000  C 
  C51      1.0000 0.89490  0.04390  0.65410  Biso   1.000  C 
  H45      1.0000 0.86998  0.07667  0.66327  Biso   1.000  H 
  C52      1.0000 0.84160  0.00350  0.68710  Biso   1.000  C 
  C53      1.0000 0.87830  0.95500  0.67480  Biso   1.000  C 
  C54      1.0000 0.97210  0.94610  0.62850  Biso   1.000  C 
  C55      1.0000 0.02560  0.98450  0.59230  Biso   1.000  C 
  H46      1.0000 0.08527  0.97792  0.55954  Biso   1.000  H 
  N23      1.0000 0.01480  0.89620  0.61930  Biso   1.000  N 
  C56      1.0000 0.13790  0.88170  0.60860  Biso   1.000  C 
  N24      1.0000 0.15140  0.83370  0.61140  Biso   1.000  N 
  C57      1.0000 0.03120  0.81450  0.62410  Biso   1.000  C 
  H47      1.0000 0.01081  0.78067  0.62760  Biso   1.000  H 
  C58      1.0000 0.94710  0.85270  0.63060  Biso   1.000  C 
  H48      1.0000 0.85914  0.85023  0.64094  Biso   1.000  H 
  Zn17     1.0000 0.32497  0.79943  0.61102  Biso   1.000  Zn
  O30      1.0000 0.37020  0.80210  0.51990  Biso   1.000  O 
  O31      1.0000 0.42920  0.84150  0.66910  Biso   1.000  O 
  P14      1.0000 0.54860  0.87408  0.66500  Biso   1.000  P 
  H49      1.0000 0.61987  0.86401  0.72126  Biso   1.000  H 
  O32      1.0000 0.51750  0.92820  0.66710  Biso   1.000  O 
  O33      1.0000 0.63570  0.86000  0.60960  Biso   1.000  O 
  O34      1.0000 0.29560  0.73349  0.64920  Biso   1.000  O 
  P15      1.0000 0.22752  0.68856  0.61877  Biso   1.000  P 
  H50      1.0000 0.22797  0.65354  0.66722  Biso   1.000  H 
  O35      1.0000 0.08350  0.69780  0.60290  Biso   1.000  O 
  Zn18     1.0000 0.98312  0.65355  0.54548  Biso   1.000  Zn
  O36      1.0000 0.97260  0.67660  0.45470  Biso   1.000  O 
  P16      1.0000 0.04811  0.65572  0.39701  Biso   1.000  P 
  H51      1.0000 0.02118  0.68737  0.34618  Biso   1.000  H 
  O37      1.0000 0.00020  0.60494  0.37420  Biso   1.000  O 
  Zn19     1.0000 0.04097  0.53641  0.39855  Biso   1.000  Zn
  O38      1.0000 0.16180  0.53218  0.47390  Biso   1.000  O 
  P17      1.0000 0.13788  0.54586  0.54607  Biso   1.000  P 
  H52      1.0000 0.24854  0.56871  0.56893  Biso   1.000  H 
  O39      1.0000 0.02810  0.58362  0.55360  Biso   1.000  O 
  O40      1.0000 0.11800  0.50018  0.58860  Biso   1.000  O 
  N25      1.0000 0.12560  0.50260  0.32090  Biso   1.000  N 
  C59      1.0000 0.09090  0.45720  0.29360  Biso   1.000  C 
  H53      1.0000 0.02539  0.43635  0.30881  Biso   1.000  H 
  C60      1.0000 0.16600  0.44750  0.24150  Biso   1.000  C 
  H54      1.0000 0.16287  0.41912  0.21464  Biso   1.000  H 
  N26      1.0000 0.24750  0.48760  0.23620  Biso   1.000  N 
  C61      1.0000 0.34160  0.49650  0.18710  Biso   1.000  C 
  C62      1.0000 0.39490  0.45610  0.15410  Biso   1.000  C 
  H55      1.0000 0.36998  0.42333  0.16327  Biso   1.000  H 
  C63      1.0000 0.37830  0.54500  0.17480  Biso   1.000  C 
  H56      1.0000 0.34054  0.57146  0.19737  Biso   1.000  H 
  C64      1.0000 0.21740  0.52000  0.28550  Biso   1.000  C 
  H57      1.0000 0.25801  0.55087  0.29256  Biso   1.000  H 
  O41      1.0000 0.88200  0.49982  0.41140  Biso   1.000  O 
  P18      1.0000 0.86212  0.45414  0.45393  Biso   1.000  P 
  O42      1.0000 0.97190  0.41638  0.44640  Biso   1.000  O 
  Zn20     1.0000 0.01688  0.34645  0.45452  Biso   1.000  Zn
  N27      1.0000 0.19560  0.34710  0.41810  Biso   1.000  N 
  C65      1.0000 0.28320  0.31100  0.40000  Biso   1.000  C 
  H58      1.0000 0.26956  0.27663  0.40368  Biso   1.000  H 
  C66      1.0000 0.39150  0.33220  0.37630  Biso   1.000  C 
  H59      1.0000 0.46462  0.31573  0.36055  Biso   1.000  H 
  N28      1.0000 0.37260  0.38310  0.37990  Biso   1.000  N 
  C67      1.0000 0.25480  0.39010  0.40500  Biso   1.000  C 
  H60      1.0000 0.21837  0.42150  0.41235  Biso   1.000  H 
  O43      1.0000 0.02740  0.32340  0.54530  Biso   1.000  O 
  O44      1.0000 0.91650  0.30220  0.39710  Biso   1.000  O 
  H61      1.0000 0.75146  0.43129  0.43107  Biso   1.000  H 
  O45      1.0000 0.83820  0.46782  0.52610  Biso   1.000  O 
  O46      1.0000 0.19450  0.65590  0.40840  Biso   1.000  O 
  N29      1.0000 0.80440  0.65290  0.58190  Biso   1.000  N 
  C68      1.0000 0.74520  0.60990  0.59500  Biso   1.000  C 
  H62      1.0000 0.78163  0.57850  0.58765  Biso   1.000  H 
  N30      1.0000 0.62740  0.61690  0.62010  Biso   1.000  N 
  C69      1.0000 0.54050  0.57820  0.63880  Biso   1.000  C 
  C70      1.0000 0.46010  0.58430  0.69160  Biso   1.000  C 
  H63      1.0000 0.46158  0.61385  0.71607  Biso   1.000  H 
  C71      1.0000 0.37730  0.54560  0.70750  Biso   1.000  C 
  N31      1.0000 0.28700  0.55110  0.76000  Biso   1.000  N 
  C72      1.0000 0.22200  0.51240  0.78790  Biso   1.000  C 
  H64      1.0000 0.23220  0.47879  0.77686  Biso   1.000  H 
  N32      1.0000 0.14230  0.52940  0.83310  Biso   1.000  N 
  C73      1.0000 0.15770  0.58060  0.83370  Biso   1.000  C 
  H65      1.0000 0.11355  0.60224  0.86132  Biso   1.000  H 
  C74      1.0000 0.24410  0.59510  0.78950  Biso   1.000  C 
  H66      1.0000 0.27021  0.62769  0.78030  Biso   1.000  H 
  Zn21     1.0000 0.03154  0.48365  0.88939  Biso   1.000  Zn
  O47      1.0000 0.15410  0.46131  0.95990  Biso   1.000  O 
  P19      1.0000 0.11171  0.44116  0.02582  Biso   1.000  P 
  H67      1.0000 0.19927  0.40534  0.04391  Biso   1.000  H 
  O48      1.0000 0.97960  0.41690  0.02120  Biso   1.000  O 
  O49      1.0000 0.11540  0.47989  0.08020  Biso   1.000  O 
  O50      1.0000 0.98250  0.42820  0.83290  Biso   1.000  O 
  O51      1.0000 0.88460  0.52011  0.91980  Biso   1.000  O 
  C75      1.0000 0.37650  0.50090  0.67310  Biso   1.000  C 
  H68      1.0000 0.32215  0.47462  0.68496  Biso   1.000  H 
  C76      1.0000 0.45920  0.49640  0.62020  Biso   1.000  C 
  C77      1.0000 0.53910  0.53430  0.60160  Biso   1.000  C 
  H69      1.0000 0.59145  0.53093  0.56501  Biso   1.000  H 
  N33      1.0000 0.45730  0.45000  0.58540  Biso   1.000  N 
  C78      1.0000 0.35250  0.41770  0.57540  Biso   1.000  C 
  H70      1.0000 0.26510  0.42394  0.58430  Biso   1.000  H 
  C79      1.0000 0.40170  0.37590  0.55080  Biso   1.000  C 
  H71      1.0000 0.35278  0.34766  0.53912  Biso   1.000  H 
  N34      1.0000 0.53580  0.38040  0.54490  Biso   1.000  N 
  C80      1.0000 0.56290  0.42540  0.56620  Biso   1.000  C 
  H72      1.0000 0.64707  0.43897  0.56789  Biso   1.000  H 
  C81      1.0000 0.60850  0.66780  0.62370  Biso   1.000  C 
  H73      1.0000 0.53538  0.68427  0.63945  Biso   1.000  H 
  C82      1.0000 0.71680  0.68900  0.60000  Biso   1.000  C 
  H74      1.0000 0.73044  0.72337  0.59632  Biso   1.000  H 
  O52      1.0000 0.29470  0.66680  0.56170  Biso   1.000  O 
  H75      1.0000 0.20602  0.90369  0.60007  Biso   1.000  H 
  H76      1.0000 0.84054  0.92854  0.69737  Biso   1.000  H 
  N35      1.0000 0.74750  0.01240  0.73620  Biso   1.000  N 
  C83      1.0000 0.66600  0.05250  0.74150  Biso   1.000  C 
  H77      1.0000 0.66287  0.08088  0.71464  Biso   1.000  H 
  C84      1.0000 0.59090  0.04280  0.79360  Biso   1.000  C 
  H78      1.0000 0.52539  0.06365  0.80881  Biso   1.000  H 
  N36      1.0000 0.62560  0.99740  0.82090  Biso   1.000  N 
  C85      1.0000 0.71740  0.98000  0.78550  Biso   1.000  C 
  H79      1.0000 0.75801  0.94913  0.79256  Biso   1.000  H 
  Zn22     1.0000 0.54097  0.96359  0.89855  Biso   1.000  Zn
  O53      1.0000 0.50020  0.89506  0.87420  Biso   1.000  O 
  P20      1.0000 0.54811  0.84428  0.89701  Biso   1.000  P 
  H80      1.0000 0.52118  0.81263  0.84618  Biso   1.000  H 
  O54      1.0000 0.69450  0.84410  0.90840  Biso   1.000  O 
  O55      1.0000 0.47260  0.82340  0.95470  Biso   1.000  O 
  Zn23     1.0000 0.48312  0.84645  0.04548  Biso   1.000  Zn
  N37      1.0000 0.30440  0.84710  0.08190  Biso   1.000  N 
  C86      1.0000 0.21680  0.81100  0.10000  Biso   1.000  C 
  H81      1.0000 0.23044  0.77663  0.09632  Biso   1.000  H 
  C87      1.0000 0.10850  0.83220  0.12370  Biso   1.000  C 
  H82      1.0000 0.03538  0.81573  0.13945  Biso   1.000  H 
  N38      1.0000 0.12740  0.88310  0.12010  Biso   1.000  N 
  C88      1.0000 0.04050  0.92180  0.13880  Biso   1.000  C 
  C89      1.0000 0.03910  0.96570  0.10160  Biso   1.000  C 
  H83      1.0000 0.09145  0.96907  0.06501  Biso   1.000  H 
  C90      1.0000 0.95920  0.00360  0.12020  Biso   1.000  C 
  C91      1.0000 0.87650  0.99910  0.17310  Biso   1.000  C 
  C92      1.0000 0.87730  0.95440  0.20750  Biso   1.000  C 
  N39      1.0000 0.78700  0.94890  0.26000  Biso   1.000  N 
  C93      1.0000 0.74410  0.90490  0.28950  Biso   1.000  C 
  H84      1.0000 0.77021  0.87231  0.28030  Biso   1.000  H 
  C94      1.0000 0.65770  0.91940  0.33370  Biso   1.000  C 
  H85      1.0000 0.61355  0.89776  0.36132  Biso   1.000  H 
  N40      1.0000 0.64230  0.97060  0.33310  Biso   1.000  N 
  C95      1.0000 0.72200  0.98760  0.28790  Biso   1.000  C 
  H86      1.0000 0.73220  0.02121  0.27686  Biso   1.000  H 
  C96      1.0000 0.96010  0.91570  0.19160  Biso   1.000  C 
  H87      1.0000 0.96158  0.88615  0.21607  Biso   1.000  H 
  H88      1.0000 0.82215  0.02538  0.18496  Biso   1.000  H 
  N41      1.0000 0.95730  0.05000  0.08540  Biso   1.000  N 
  C97      1.0000 0.85250  0.08230  0.07540  Biso   1.000  C 
  H89      1.0000 0.76510  0.07606  0.08430  Biso   1.000  H 
  C98      1.0000 0.90170  0.12410  0.05080  Biso   1.000  C 
  H90      1.0000 0.85278  0.15234  0.03912  Biso   1.000  H 
  N42      1.0000 0.03580  0.11960  0.04490  Biso   1.000  N 
  C99      1.0000 0.06290  0.07460  0.06620  Biso   1.000  C 
  H91      1.0000 0.14707  0.06103  0.06789  Biso   1.000  H 
  Zn24     1.0000 0.16395  0.17450  0.02941  Biso   1.000  Zn
  O56      1.0000 0.06440  0.23117  0.05530  Biso   1.000  O 
  P21      1.0000 0.05020  0.28476  0.03579  Biso   1.000  P 
  H92      1.0000 0.09291  0.31156  0.08929  Biso   1.000  H 
  O57      1.0000 0.12980  0.30210  0.98010  Biso   1.000  O 
  O58      1.0000 0.90600  0.30110  0.02830  Biso   1.000  O 
  O59      1.0000 0.20530  0.16680  0.93830  Biso   1.000  O 
  O60      1.0000 0.30550  0.15590  0.09160  Biso   1.000  O 
  P22      1.0000 0.45189  0.15572  0.10299  Biso   1.000  P 
  H93      1.0000 0.47882  0.18737  0.15381  Biso   1.000  H 
  O61      1.0000 0.49980  0.10494  0.12580  Biso   1.000  O 
  O62      1.0000 0.52740  0.17660  0.04530  Biso   1.000  O 
  C100     1.0000 0.24520  0.89010  0.09500  Biso   1.000  C 
  H94      1.0000 0.28163  0.92150  0.08765  Biso   1.000  H 
  O63      1.0000 0.58350  0.80220  0.10290  Biso   1.000  O 
  P23      1.0000 0.72752  0.81144  0.11877  Biso   1.000  P 
  O64      1.0000 0.79560  0.76651  0.14920  Biso   1.000  O 
  H95      1.0000 0.72797  0.84646  0.16722  Biso   1.000  H 
  O65      1.0000 0.79470  0.83320  0.06170  Biso   1.000  O 
  O66      1.0000 0.52810  0.91638  0.05360  Biso   1.000  O 
  P24      1.0000 0.63788  0.95414  0.04607  Biso   1.000  P 
  H96      1.0000 0.74854  0.93129  0.06893  Biso   1.000  H 
  O67      1.0000 0.66180  0.96782  0.97390  Biso   1.000  O 
  O68      1.0000 0.61800  0.99982  0.08860  Biso   1.000  O 
  O69      1.0000 0.38200  0.00018  0.91140  Biso   1.000  O 
  O70      1.0000 0.61540  0.02011  0.58020  Biso   1.000  O 
  O71      1.0000 0.38460  0.97989  0.41980  Biso   1.000  O 
  H97      1.0000 0.38013  0.13599  0.27874  Biso   1.000  H 
  N43      1.0000 0.84860  0.16630  0.38860  Biso   1.000  N 
  C101     1.0000 0.96880  0.18550  0.37590  Biso   1.000  C 
  H98      1.0000 0.98919  0.21933  0.37240  Biso   1.000  H 
  C102     1.0000 0.05290  0.14730  0.36940  Biso   1.000  C 
  H99      1.0000 0.14086  0.14977  0.35906  Biso   1.000  H 
  N44      1.0000 0.98520  0.10380  0.38070  Biso   1.000  N 
  C103     1.0000 0.86210  0.11830  0.39140  Biso   1.000  C 
  H100     1.0000 0.79398  0.09631  0.39993  Biso   1.000  H 
  C104     1.0000 0.02790  0.05390  0.37150  Biso   1.000  C 
  C105     1.0000 0.97440  0.01550  0.40770  Biso   1.000  C 
  H101     1.0000 0.91473  0.02208  0.44046  Biso   1.000  H 
  C106     1.0000 0.01240  0.96660  0.39350  Biso   1.000  C 
  N45      1.0000 0.95360  0.92600  0.42810  Biso   1.000  N 
  C107     1.0000 0.99630  0.87680  0.42940  Biso   1.000  C 
  C108     1.0000 0.90670  0.85110  0.46260  Biso   1.000  C 
  H102     1.0000 0.91070  0.81691  0.47166  Biso   1.000  H 
  N46      1.0000 0.80800  0.88270  0.48120  Biso   1.000  N 
  C109     1.0000 0.84050  0.92750  0.46020  Biso   1.000  C 
  H103     1.0000 0.79165  0.95644  0.46666  Biso   1.000  H 
  H104     1.0000 0.07184  0.86412  0.41091  Biso   1.000  H 
  C110     1.0000 0.10510  0.95610  0.34590  Biso   1.000  C 
  H105     1.0000 0.13002  0.92333  0.33673  Biso   1.000  H 
  C111     1.0000 0.15840  0.99650  0.31290  Biso   1.000  C 
  N47      1.0000 0.25250  0.98760  0.26380  Biso   1.000  N 
  C112     1.0000 0.33400  0.94750  0.25850  Biso   1.000  C 
  H106     1.0000 0.33713  0.91912  0.28536  Biso   1.000  H 
  C113     1.0000 0.40910  0.95720  0.20640  Biso   1.000  C 
  H107     1.0000 0.47461  0.93635  0.19119  Biso   1.000  H 
  N48      1.0000 0.37440  0.00260  0.17910  Biso   1.000  N 
  C114     1.0000 0.28260  0.02000  0.21450  Biso   1.000  C 
  H108     1.0000 0.24199  0.05087  0.20744  Biso   1.000  H 
  C115     1.0000 0.12170  0.04500  0.32520  Biso   1.000  C 
  H109     1.0000 0.15946  0.07146  0.30263  Biso   1.000  H 
  H110     1.0000 0.77203  0.34646  0.33278  Biso   1.000  H 
  O72      1.0000 0.09400  0.69890  0.97170  Biso   1.000  O 
  C116     1.0000 0.77800  0.48760  0.21210  Biso   1.000  C 
  H111     1.0000 0.76780  0.52121  0.22314  Biso   1.000  H 
  H112     1.0000 0.72979  0.37231  0.21970  Biso   1.000  H 
  C117     1.0000 0.62350  0.49910  0.32690  Biso   1.000  C 
  H113     1.0000 0.67785  0.52538  0.31504  Biso   1.000  H 
  C118     1.0000 0.64750  0.58230  0.42460  Biso   1.000  C 
  H114     1.0000 0.73490  0.57606  0.41570  Biso   1.000  H 
  C119     1.0000 0.59830  0.62410  0.44920  Biso   1.000  C 
  H115     1.0000 0.64722  0.65234  0.46088  Biso   1.000  H 
  H116     1.0000 0.26780  0.97879  0.72314  Biso   1.000  H 
  C120     1.0000 0.12350  0.00090  0.82690  Biso   1.000  C 
  H117     1.0000 0.17785  0.97462  0.81504  Biso   1.000  H 
  H118     1.0000 0.03842  0.11385  0.78393  Biso   1.000  H 
  H119     1.0000 0.88013  0.36401  0.77874  Biso   1.000  H 
  H120     1.0000 0.25146  0.06871  0.93107  Biso   1.000  H 
