data_image0
_cell_length_a       11.9554
_cell_length_b       13.5164
_cell_length_c       14.1159
_cell_angle_alpha    64.45
_cell_angle_beta     75.088
_cell_angle_gamma    79.783

_symmetry_space_group_name_H-M    "P 1"
_symmetry_int_tables_number       1

loop_
  _symmetry_equiv_pos_as_xyz
  'x, y, z'

loop_
  _atom_site_label
  _atom_site_occupancy
  _atom_site_fract_x
  _atom_site_fract_y
  _atom_site_fract_z
  _atom_site_thermal_displace_type
  _atom_site_B_iso_or_equiv
  _atom_site_type_symbol
  Y1       1.0000 0.95890  0.65159  0.04711  Biso   1.000  Y 
  O1       1.0000 0.84350  0.50700  0.14720  Biso   1.000  O 
  C1       1.0000 0.84760  0.41740  0.14200  Biso   1.000  C 
  O2       1.0000 0.90430  0.39810  0.06750  Biso   1.000  O 
  Y2       1.0000 0.04110  0.34841  0.95289  Biso   1.000  Y 
  O3       1.0000 0.22420  0.25700  0.89370  Biso   1.000  O 
  C2       1.0000 0.19950  0.27600  0.80590  Biso   1.000  C 
  O4       1.0000 0.10820  0.32220  0.78300  Biso   1.000  O 
  C3       1.0000 0.28660  0.22610  0.74150  Biso   1.000  C 
  C4       1.0000 0.39030  0.18100  0.76900  Biso   1.000  C 
  H1       1.0000 0.40787  0.18579  0.82875  Biso   1.000  H 
  C5       1.0000 0.47080  0.12860  0.71400  Biso   1.000  C 
  H2       1.0000 0.53848  0.09023  0.74044  Biso   1.000  H 
  C6       1.0000 0.45250  0.13200  0.61900  Biso   1.000  C 
  C7       1.0000 0.35120  0.17700  0.58820  Biso   1.000  C 
  H3       1.0000 0.33686  0.17524  0.52586  Biso   1.000  H 
  C8       1.0000 0.26380  0.22800  0.64870  Biso   1.000  C 
  H4       1.0000 0.19310  0.26166  0.62591  Biso   1.000  H 
  Si1      1.0000 0.56350  0.06750  0.53880  Biso   1.000  Si
  C9       1.0000 0.64820  0.17490  0.41790  Biso   1.000  C 
  C10      1.0000 0.65340  0.27510  0.41190  Biso   1.000  C 
  C11      1.0000 0.71930  0.35520  0.32250  Biso   1.000  C 
  C12      1.0000 0.77660  0.33190  0.23510  Biso   1.000  C 
  C13      1.0000 0.77350  0.22870  0.24050  Biso   1.000  C 
  H5       1.0000 0.81328  0.20940  0.18261  Biso   1.000  H 
  C14      1.0000 0.70790  0.15000  0.33680  Biso   1.000  C 
  H6       1.0000 0.70752  0.07757  0.34208  Biso   1.000  H 
  H7       1.0000 0.72420  0.42464  0.32237  Biso   1.000  H 
  H8       1.0000 0.61122  0.29338  0.46984  Biso   1.000  H 
  O5       1.0000 0.50000  0.00000  0.50000  Biso   1.000  O 
  Si2      1.0000 0.43650  0.93250  0.46120  Biso   1.000  Si
  C15      1.0000 0.35180  0.82510  0.58210  Biso   1.000  C 
  C16      1.0000 0.34660  0.72490  0.58810  Biso   1.000  C 
  H9       1.0000 0.38878  0.70662  0.53016  Biso   1.000  H 
  C17      1.0000 0.28070  0.64480  0.67750  Biso   1.000  C 
  H10      1.0000 0.27580  0.57536  0.67763  Biso   1.000  H 
  C18      1.0000 0.22340  0.66810  0.76490  Biso   1.000  C 
  C19      1.0000 0.15240  0.58260  0.85800  Biso   1.000  C 
  O6       1.0000 0.15650  0.49300  0.85280  Biso   1.000  O 
  O7       1.0000 0.09570  0.60190  0.93250  Biso   1.000  O 
  C20      1.0000 0.22650  0.77130  0.75950  Biso   1.000  C 
  C21      1.0000 0.29210  0.85000  0.66320  Biso   1.000  C 
  H11      1.0000 0.29248  0.92244  0.65792  Biso   1.000  H 
  H12      1.0000 0.18672  0.79060  0.81739  Biso   1.000  H 
  C22      1.0000 0.54750  0.86800  0.38100  Biso   1.000  C 
  C23      1.0000 0.52920  0.87140  0.28600  Biso   1.000  C 
  H13      1.0000 0.46152  0.90978  0.25956  Biso   1.000  H 
  C24      1.0000 0.60970  0.81900  0.23100  Biso   1.000  C 
  H14      1.0000 0.59213  0.81421  0.17125  Biso   1.000  H 
  C25      1.0000 0.71340  0.77390  0.25850  Biso   1.000  C 
  C26      1.0000 0.80050  0.72400  0.19410  Biso   1.000  C 
  O8       1.0000 0.89180  0.67780  0.21700  Biso   1.000  O 
  O9       1.0000 0.77580  0.74300  0.10630  Biso   1.000  O 
  C27      1.0000 0.73620  0.77200  0.35130  Biso   1.000  C 
  H15      1.0000 0.80690  0.73834  0.37409  Biso   1.000  H 
  C28      1.0000 0.64880  0.82300  0.41180  Biso   1.000  C 
  H16      1.0000 0.66314  0.82476  0.47414  Biso   1.000  H 
  C29      1.0000 0.33860  0.02770  0.37210  Biso   1.000  C 
  C30      1.0000 0.36170  0.13720  0.31140  Biso   1.000  C 
  H17      1.0000 0.42269  0.16535  0.32196  Biso   1.000  H 
  C31      1.0000 0.29380  0.20920  0.23190  Biso   1.000  C 
  H18      1.0000 0.30927  0.28415  0.19073  Biso   1.000  H 
  C32      1.0000 0.20660  0.16600  0.21790  Biso   1.000  C 
  C33      1.0000 0.14070  0.23240  0.12810  Biso   1.000  C 
  O10      1.0000 0.06920  0.18660  0.11480  Biso   1.000  O 
  O11      1.0000 0.16210  0.33420  0.07100  Biso   1.000  O 
  C34      1.0000 0.18450  0.05670  0.27880  Biso   1.000  C 
  H19      1.0000 0.12458  0.02766  0.26768  Biso   1.000  H 
  C35      1.0000 0.24780  0.98960  0.35500  Biso   1.000  C 
  H20      1.0000 0.22932  0.91547  0.39697  Biso   1.000  H 
  C36      1.0000 0.66140  0.97230  0.62790  Biso   1.000  C 
  C37      1.0000 0.63830  0.86280  0.68860  Biso   1.000  C 
  H21      1.0000 0.57731  0.83465  0.67804  Biso   1.000  H 
  C38      1.0000 0.70620  0.79080  0.76810  Biso   1.000  C 
  H22      1.0000 0.69073  0.71585  0.80927  Biso   1.000  H 
  C39      1.0000 0.79340  0.83400  0.78210  Biso   1.000  C 
  C40      1.0000 0.85930  0.76760  0.87190  Biso   1.000  C 
  O12      1.0000 0.93080  0.81340  0.88520  Biso   1.000  O 
  O13      1.0000 0.83790  0.66580  0.92900  Biso   1.000  O 
  C41      1.0000 0.81550  0.94330  0.72120  Biso   1.000  C 
  H23      1.0000 0.87542  0.97234  0.73232  Biso   1.000  H 
  C42      1.0000 0.75220  0.01040  0.64500  Biso   1.000  C 
  H24      1.0000 0.77068  0.08453  0.60303  Biso   1.000  H 
  O14      1.0000 0.90260  0.47510  0.86790  Biso   1.000  O 
  H25      1.0000 0.86734  0.45580  0.82142  Biso   1.000  H 
  H26      1.0000 0.83289  0.49230  0.91648  Biso   1.000  H 
  O15      1.0000 0.91920  0.23020  0.98300  Biso   1.000  O 
  C43      1.0000 0.89350  0.18140  0.93520  Biso   1.000  C 
  H27      1.0000 0.91643  0.21380  0.85927  Biso   1.000  H 
  N1       1.0000 0.83880  0.09090  0.97560  Biso   1.000  N 
  C44      1.0000 0.80100  0.04070  0.91700  Biso   1.000  C 
  H28      1.0000 0.74629  0.09272  0.87425  Biso   1.000  H 
  H29      1.0000 0.86835  0.02179  0.86974  Biso   1.000  H 
  H30      1.0000 0.76254  0.97389  0.96823  Biso   1.000  H 
  C45      1.0000 0.81900  0.04300  0.09210  Biso   1.000  C 
  H31      1.0000 0.89381  0.02467  0.11463  Biso   1.000  H 
  H32      1.0000 0.77176  0.09556  0.11945  Biso   1.000  H 
  H33      1.0000 0.77846  0.97571  0.12070  Biso   1.000  H 
  O16      1.0000 0.09740  0.52490  0.13210  Biso   1.000  O 
  H34      1.0000 0.16711  0.50770  0.08352  Biso   1.000  H 
  H35      1.0000 0.13266  0.54420  0.17858  Biso   1.000  H 
  O17      1.0000 0.08080  0.76980  0.01700  Biso   1.000  O 
  C46      1.0000 0.10650  0.81860  0.06480  Biso   1.000  C 
  H36      1.0000 0.08357  0.78620  0.14073  Biso   1.000  H 
  N2       1.0000 0.16120  0.90910  0.02440  Biso   1.000  N 
  C47      1.0000 0.19900  0.95930  0.08300  Biso   1.000  C 
  H37      1.0000 0.25371  0.90728  0.12575  Biso   1.000  H 
  H38      1.0000 0.13165  0.97821  0.13026  Biso   1.000  H 
  H39      1.0000 0.23746  0.02611  0.03177  Biso   1.000  H 
  C48      1.0000 0.18100  0.95700  0.90790  Biso   1.000  C 
  H40      1.0000 0.10619  0.97533  0.88537  Biso   1.000  H 
  H41      1.0000 0.22824  0.90444  0.88055  Biso   1.000  H 
  H42      1.0000 0.22154  0.02429  0.87930  Biso   1.000  H 
