data_image0
_cell_length_a       22.987
_cell_length_b       12.635
_cell_length_c       19.051
_cell_angle_alpha    90
_cell_angle_beta     124.699
_cell_angle_gamma    90

_symmetry_space_group_name_H-M    "P 1"
_symmetry_int_tables_number       1

loop_
  _symmetry_equiv_pos_as_xyz
  'x, y, z'

loop_
  _atom_site_label
  _atom_site_occupancy
  _atom_site_fract_x
  _atom_site_fract_y
  _atom_site_fract_z
  _atom_site_thermal_displace_type
  _atom_site_B_iso_or_equiv
  _atom_site_type_symbol
  Cd1      1.0000 0.50000  0.48454  0.75000  Biso   1.000  Cd
  Cd2      1.0000 0.00000  0.98454  0.75000  Biso   1.000  Cd
  Cd3      1.0000 0.50000  0.51546  0.25000  Biso   1.000  Cd
  Cd4      1.0000 0.00000  0.01546  0.25000  Biso   1.000  Cd
  N1       1.0000 0.45830  0.42230  0.61130  Biso   1.000  N 
  N2       1.0000 0.54170  0.42230  0.88870  Biso   1.000  N 
  N3       1.0000 0.95830  0.92230  0.61130  Biso   1.000  N 
  N4       1.0000 0.04170  0.92230  0.88870  Biso   1.000  N 
  N5       1.0000 0.54170  0.57770  0.38870  Biso   1.000  N 
  N6       1.0000 0.45830  0.57770  0.11130  Biso   1.000  N 
  N7       1.0000 0.04170  0.07770  0.38870  Biso   1.000  N 
  N8       1.0000 0.95830  0.07770  0.11130  Biso   1.000  N 
  O1       1.0000 0.07480  0.88210  0.27060  Biso   1.000  O 
  O2       1.0000 0.92520  0.88210  0.22940  Biso   1.000  O 
  O3       1.0000 0.57480  0.38210  0.27060  Biso   1.000  O 
  O4       1.0000 0.42520  0.38210  0.22940  Biso   1.000  O 
  O5       1.0000 0.92520  0.11790  0.72940  Biso   1.000  O 
  O6       1.0000 0.07480  0.11790  0.77060  Biso   1.000  O 
  O7       1.0000 0.42520  0.61790  0.72940  Biso   1.000  O 
  O8       1.0000 0.57480  0.61790  0.77060  Biso   1.000  O 
  O9       1.0000 0.12710  0.03330  0.28890  Biso   1.000  O 
  O10      1.0000 0.87290  0.03330  0.21110  Biso   1.000  O 
  O11      1.0000 0.62710  0.53330  0.28890  Biso   1.000  O 
  O12      1.0000 0.37290  0.53330  0.21110  Biso   1.000  O 
  O13      1.0000 0.87290  0.96670  0.71110  Biso   1.000  O 
  O14      1.0000 0.12710  0.96670  0.78890  Biso   1.000  O 
  O15      1.0000 0.37290  0.46670  0.71110  Biso   1.000  O 
  O16      1.0000 0.62710  0.46670  0.78890  Biso   1.000  O 
  N9       1.0000 0.50000  0.30590  0.75000  Biso   1.000  N 
  N10      1.0000 0.00000  0.80590  0.75000  Biso   1.000  N 
  N11      1.0000 0.50000  0.69410  0.25000  Biso   1.000  N 
  N12      1.0000 0.00000  0.19410  0.25000  Biso   1.000  N 
  O17      1.0000 0.44600  0.26990  0.53770  Biso   1.000  O 
  O18      1.0000 0.55400  0.26990  0.96230  Biso   1.000  O 
  O19      1.0000 0.94600  0.76990  0.53770  Biso   1.000  O 
  O20      1.0000 0.05400  0.76990  0.96230  Biso   1.000  O 
  O21      1.0000 0.55400  0.73010  0.46230  Biso   1.000  O 
  O22      1.0000 0.44600  0.73010  0.03770  Biso   1.000  O 
  O23      1.0000 0.05400  0.23010  0.46230  Biso   1.000  O 
  O24      1.0000 0.94600  0.23010  0.03770  Biso   1.000  O 
  C1       1.0000 0.18990  0.87800  0.29670  Biso   1.000  C 
  C2       1.0000 0.81010  0.87800  0.20330  Biso   1.000  C 
  C3       1.0000 0.68990  0.37800  0.29670  Biso   1.000  C 
  C4       1.0000 0.31010  0.37800  0.20330  Biso   1.000  C 
  C5       1.0000 0.81010  0.12200  0.70330  Biso   1.000  C 
  C6       1.0000 0.18990  0.12200  0.79670  Biso   1.000  C 
  C7       1.0000 0.31010  0.62200  0.70330  Biso   1.000  C 
  C8       1.0000 0.68990  0.62200  0.79670  Biso   1.000  C 
  C9       1.0000 0.12600  0.93460  0.28630  Biso   1.000  C 
  C10      1.0000 0.87400  0.93460  0.21370  Biso   1.000  C 
  C11      1.0000 0.62600  0.43460  0.28630  Biso   1.000  C 
  C12      1.0000 0.37400  0.43460  0.21370  Biso   1.000  C 
  C13      1.0000 0.87400  0.06540  0.71370  Biso   1.000  C 
  C14      1.0000 0.12600  0.06540  0.78630  Biso   1.000  C 
  C15      1.0000 0.37400  0.56540  0.71370  Biso   1.000  C 
  C16      1.0000 0.62600  0.56540  0.78630  Biso   1.000  C 
  N13      1.0000 0.39570  0.63810  0.41280  Biso   1.000  N 
  N14      1.0000 0.60430  0.63810  0.08720  Biso   1.000  N 
  N15      1.0000 0.89570  0.13810  0.41280  Biso   1.000  N 
  N16      1.0000 0.10430  0.13810  0.08720  Biso   1.000  N 
  N17      1.0000 0.60430  0.36190  0.58720  Biso   1.000  N 
  N18      1.0000 0.39570  0.36190  0.91280  Biso   1.000  N 
  N19      1.0000 0.10430  0.86190  0.58720  Biso   1.000  N 
  N20      1.0000 0.89570  0.86190  0.91280  Biso   1.000  N 
  C17      1.0000 0.45750  0.32130  0.60060  Biso   1.000  C 
  C18      1.0000 0.54250  0.32130  0.89940  Biso   1.000  C 
  C19      1.0000 0.95750  0.82130  0.60060  Biso   1.000  C 
  C20      1.0000 0.04250  0.82130  0.89940  Biso   1.000  C 
  C21      1.0000 0.54250  0.67870  0.39940  Biso   1.000  C 
  C22      1.0000 0.45750  0.67870  0.10060  Biso   1.000  C 
  C23      1.0000 0.04250  0.17870  0.39940  Biso   1.000  C 
  C24      1.0000 0.95750  0.17870  0.10060  Biso   1.000  C 
  C25      1.0000 0.18390  0.77850  0.26970  Biso   1.000  C 
  C26      1.0000 0.81610  0.77850  0.23030  Biso   1.000  C 
  C27      1.0000 0.68390  0.27850  0.26970  Biso   1.000  C 
  C28      1.0000 0.31610  0.27850  0.23030  Biso   1.000  C 
  C29      1.0000 0.81610  0.22150  0.73030  Biso   1.000  C 
  C30      1.0000 0.18390  0.22150  0.76970  Biso   1.000  C 
  C31      1.0000 0.31610  0.72150  0.73030  Biso   1.000  C 
  C32      1.0000 0.68390  0.72150  0.76970  Biso   1.000  C 
  H1       1.0000 0.13972  0.74284  0.24253  Biso   1.000  H 
  H2       1.0000 0.86028  0.74284  0.25747  Biso   1.000  H 
  H3       1.0000 0.63972  0.24284  0.24253  Biso   1.000  H 
  H4       1.0000 0.36028  0.24284  0.25747  Biso   1.000  H 
  H5       1.0000 0.86028  0.25716  0.75747  Biso   1.000  H 
  H6       1.0000 0.13972  0.25716  0.74253  Biso   1.000  H 
  H7       1.0000 0.36028  0.75716  0.75747  Biso   1.000  H 
  H8       1.0000 0.63972  0.75716  0.74253  Biso   1.000  H 
  C33      1.0000 0.48180  0.25500  0.68040  Biso   1.000  C 
  C34      1.0000 0.51820  0.25500  0.81960  Biso   1.000  C 
  C35      1.0000 0.98180  0.75500  0.68040  Biso   1.000  C 
  C36      1.0000 0.01820  0.75500  0.81960  Biso   1.000  C 
  C37      1.0000 0.51820  0.74500  0.31960  Biso   1.000  C 
  C38      1.0000 0.48180  0.74500  0.18040  Biso   1.000  C 
  C39      1.0000 0.01820  0.24500  0.31960  Biso   1.000  C 
  C40      1.0000 0.98180  0.24500  0.18040  Biso   1.000  C 
  C41      1.0000 0.43720  0.49070  0.54270  Biso   1.000  C 
  C42      1.0000 0.56280  0.49070  0.95730  Biso   1.000  C 
  C43      1.0000 0.93720  0.99070  0.54270  Biso   1.000  C 
  C44      1.0000 0.06280  0.99070  0.95730  Biso   1.000  C 
  C45      1.0000 0.56280  0.50930  0.45730  Biso   1.000  C 
  C46      1.0000 0.43720  0.50930  0.04270  Biso   1.000  C 
  C47      1.0000 0.06280  0.00930  0.45730  Biso   1.000  C 
  C48      1.0000 0.93720  0.00930  0.04270  Biso   1.000  C 
  C49      1.0000 0.37310  0.71640  0.34620  Biso   1.000  C 
  C50      1.0000 0.62690  0.71640  0.15380  Biso   1.000  C 
  C51      1.0000 0.87310  0.21640  0.34620  Biso   1.000  C 
  C52      1.0000 0.12690  0.21640  0.15380  Biso   1.000  C 
  C53      1.0000 0.62690  0.28360  0.65380  Biso   1.000  C 
  C54      1.0000 0.37310  0.28360  0.84620  Biso   1.000  C 
  C55      1.0000 0.12690  0.78360  0.65380  Biso   1.000  C 
  C56      1.0000 0.87310  0.78360  0.84620  Biso   1.000  C 
  H9       1.0000 0.36308  0.68082  0.29409  Biso   1.000  H 
  H10      1.0000 0.63692  0.68082  0.20591  Biso   1.000  H 
  H11      1.0000 0.86308  0.18082  0.29409  Biso   1.000  H 
  H12      1.0000 0.13692  0.18082  0.20591  Biso   1.000  H 
  H13      1.0000 0.63692  0.31918  0.70591  Biso   1.000  H 
  H14      1.0000 0.36308  0.31918  0.79409  Biso   1.000  H 
  H15      1.0000 0.13692  0.81918  0.70591  Biso   1.000  H 
  H16      1.0000 0.86308  0.81918  0.79409  Biso   1.000  H 
  H17      1.0000 0.41192  0.76773  0.36497  Biso   1.000  H 
  H18      1.0000 0.58808  0.76773  0.13503  Biso   1.000  H 
  H19      1.0000 0.91192  0.26773  0.36497  Biso   1.000  H 
  H20      1.0000 0.08808  0.26773  0.13503  Biso   1.000  H 
  H21      1.0000 0.58808  0.23227  0.63503  Biso   1.000  H 
  H22      1.0000 0.41192  0.23227  0.86497  Biso   1.000  H 
  H23      1.0000 0.08808  0.73227  0.63503  Biso   1.000  H 
  H24      1.0000 0.91192  0.73227  0.86497  Biso   1.000  H 
  C57      1.0000 0.43130  0.67100  0.49540  Biso   1.000  C 
  C58      1.0000 0.56870  0.67100  0.00460  Biso   1.000  C 
  C59      1.0000 0.93130  0.17100  0.49540  Biso   1.000  C 
  C60      1.0000 0.06870  0.17100  0.00460  Biso   1.000  C 
  C61      1.0000 0.56870  0.32900  0.50460  Biso   1.000  C 
  C62      1.0000 0.43130  0.32900  0.99540  Biso   1.000  C 
  C63      1.0000 0.06870  0.82900  0.50460  Biso   1.000  C 
  C64      1.0000 0.93130  0.82900  0.99540  Biso   1.000  C 
  H25      1.0000 0.44041  0.74428  0.50832  Biso   1.000  H 
  H26      1.0000 0.55959  0.74428  0.99168  Biso   1.000  H 
  H27      1.0000 0.94041  0.24428  0.50832  Biso   1.000  H 
  H28      1.0000 0.05959  0.24428  0.99168  Biso   1.000  H 
  H29      1.0000 0.55959  0.25572  0.49168  Biso   1.000  H 
  H30      1.0000 0.44041  0.25572  0.00832  Biso   1.000  H 
  H31      1.0000 0.05959  0.75572  0.49168  Biso   1.000  H 
  H32      1.0000 0.94041  0.75572  0.00832  Biso   1.000  H 
  C65      1.0000 0.30680  0.77600  0.32510  Biso   1.000  C 
  C66      1.0000 0.69320  0.77600  0.17490  Biso   1.000  C 
  C67      1.0000 0.80680  0.27600  0.32510  Biso   1.000  C 
  C68      1.0000 0.19320  0.27600  0.17490  Biso   1.000  C 
  C69      1.0000 0.69320  0.22400  0.67490  Biso   1.000  C 
  C70      1.0000 0.30680  0.22400  0.82510  Biso   1.000  C 
  C71      1.0000 0.19320  0.72400  0.67490  Biso   1.000  C 
  C72      1.0000 0.80680  0.72400  0.82510  Biso   1.000  C 
  C73      1.0000 0.45440  0.59870  0.56090  Biso   1.000  C 
  C74      1.0000 0.54560  0.59870  0.93910  Biso   1.000  C 
  C75      1.0000 0.95440  0.09870  0.56090  Biso   1.000  C 
  C76      1.0000 0.04560  0.09870  0.93910  Biso   1.000  C 
  C77      1.0000 0.54560  0.40130  0.43910  Biso   1.000  C 
  C78      1.0000 0.45440  0.40130  0.06090  Biso   1.000  C 
  C79      1.0000 0.04560  0.90130  0.43910  Biso   1.000  C 
  C80      1.0000 0.95440  0.90130  0.06090  Biso   1.000  C 
  H33      1.0000 0.48198  0.62212  0.61849  Biso   1.000  H 
  H34      1.0000 0.51802  0.62212  0.88151  Biso   1.000  H 
  H35      1.0000 0.98198  0.12212  0.61849  Biso   1.000  H 
  H36      1.0000 0.01802  0.12212  0.88151  Biso   1.000  H 
  H37      1.0000 0.51802  0.37788  0.38151  Biso   1.000  H 
  H38      1.0000 0.48198  0.37788  0.11849  Biso   1.000  H 
  H39      1.0000 0.01802  0.87788  0.38151  Biso   1.000  H 
  H40      1.0000 0.98198  0.87788  0.11849  Biso   1.000  H 
  C81      1.0000 0.25350  0.93120  0.33350  Biso   1.000  C 
  C82      1.0000 0.74650  0.93120  0.16650  Biso   1.000  C 
  C83      1.0000 0.75350  0.43120  0.33350  Biso   1.000  C 
  C84      1.0000 0.24650  0.43120  0.16650  Biso   1.000  C 
  C85      1.0000 0.74650  0.06880  0.66650  Biso   1.000  C 
  C86      1.0000 0.25350  0.06880  0.83350  Biso   1.000  C 
  C87      1.0000 0.24650  0.56880  0.66650  Biso   1.000  C 
  C88      1.0000 0.75350  0.56880  0.83350  Biso   1.000  C 
  H41      1.0000 0.25638  0.00399  0.34769  Biso   1.000  H 
  H42      1.0000 0.74362  0.00399  0.15231  Biso   1.000  H 
  H43      1.0000 0.75638  0.50399  0.34769  Biso   1.000  H 
  H44      1.0000 0.24362  0.50399  0.15231  Biso   1.000  H 
  H45      1.0000 0.74362  0.99601  0.65231  Biso   1.000  H 
  H46      1.0000 0.25638  0.99601  0.84769  Biso   1.000  H 
  H47      1.0000 0.24362  0.49601  0.65231  Biso   1.000  H 
  H48      1.0000 0.75638  0.49601  0.84769  Biso   1.000  H 
  C89      1.0000 0.39920  0.46360  0.45520  Biso   1.000  C 
  C90      1.0000 0.60080  0.46360  0.04480  Biso   1.000  C 
  C91      1.0000 0.89920  0.96360  0.45520  Biso   1.000  C 
  C92      1.0000 0.10080  0.96360  0.04480  Biso   1.000  C 
  C93      1.0000 0.60080  0.53640  0.54480  Biso   1.000  C 
  C94      1.0000 0.39920  0.53640  0.95520  Biso   1.000  C 
  C95      1.0000 0.10080  0.03640  0.54480  Biso   1.000  C 
  C96      1.0000 0.89920  0.03640  0.95520  Biso   1.000  C 
  H49      1.0000 0.38673  0.39178  0.43874  Biso   1.000  H 
  H50      1.0000 0.61327  0.39178  0.06126  Biso   1.000  H 
  H51      1.0000 0.88673  0.89178  0.43874  Biso   1.000  H 
  H52      1.0000 0.11327  0.89178  0.06126  Biso   1.000  H 
  H53      1.0000 0.61327  0.60822  0.56126  Biso   1.000  H 
  H54      1.0000 0.38673  0.60822  0.93874  Biso   1.000  H 
  H55      1.0000 0.11327  0.10822  0.56126  Biso   1.000  H 
  H56      1.0000 0.88673  0.10822  0.93874  Biso   1.000  H 
  C97      1.0000 0.38050  0.53650  0.39520  Biso   1.000  C 
  C98      1.0000 0.61950  0.53650  0.10480  Biso   1.000  C 
  C99      1.0000 0.88050  0.03650  0.39520  Biso   1.000  C 
  C100     1.0000 0.11950  0.03650  0.10480  Biso   1.000  C 
  C101     1.0000 0.61950  0.46350  0.60480  Biso   1.000  C 
  C102     1.0000 0.38050  0.46350  0.89520  Biso   1.000  C 
  C103     1.0000 0.11950  0.96350  0.60480  Biso   1.000  C 
  C104     1.0000 0.88050  0.96350  0.89520  Biso   1.000  C 
  H57      1.0000 0.35515  0.51444  0.33733  Biso   1.000  H 
  H58      1.0000 0.64485  0.51444  0.16267  Biso   1.000  H 
  H59      1.0000 0.85515  0.01444  0.33733  Biso   1.000  H 
  H60      1.0000 0.14485  0.01444  0.16267  Biso   1.000  H 
  H61      1.0000 0.64486  0.48556  0.66267  Biso   1.000  H 
  H62      1.0000 0.35515  0.48556  0.83733  Biso   1.000  H 
  H63      1.0000 0.14485  0.98556  0.66267  Biso   1.000  H 
  H64      1.0000 0.85515  0.98556  0.83733  Biso   1.000  H 
  C105     1.0000 0.24250  0.72700  0.28130  Biso   1.000  C 
  C106     1.0000 0.75750  0.72700  0.21870  Biso   1.000  C 
  C107     1.0000 0.74250  0.22700  0.28130  Biso   1.000  C 
  C108     1.0000 0.25750  0.22700  0.21870  Biso   1.000  C 
  C109     1.0000 0.75750  0.27300  0.71870  Biso   1.000  C 
  C110     1.0000 0.24250  0.27300  0.78130  Biso   1.000  C 
  C111     1.0000 0.25750  0.77300  0.71870  Biso   1.000  C 
  C112     1.0000 0.74250  0.77300  0.78130  Biso   1.000  C 
  H65      1.0000 0.23764  0.65794  0.25881  Biso   1.000  H 
  H66      1.0000 0.76236  0.65794  0.24119  Biso   1.000  H 
  H67      1.0000 0.73764  0.15794  0.25881  Biso   1.000  H 
  H68      1.0000 0.26236  0.15794  0.24119  Biso   1.000  H 
  H69      1.0000 0.76236  0.34206  0.74119  Biso   1.000  H 
  H70      1.0000 0.23764  0.34206  0.75881  Biso   1.000  H 
  H71      1.0000 0.26236  0.84206  0.74119  Biso   1.000  H 
  H72      1.0000 0.73764  0.84206  0.75881  Biso   1.000  H 
  C113     1.0000 0.31330  0.87830  0.35000  Biso   1.000  C 
  C114     1.0000 0.68670  0.87830  0.15000  Biso   1.000  C 
  C115     1.0000 0.81330  0.37830  0.35000  Biso   1.000  C 
  C116     1.0000 0.18670  0.37830  0.15000  Biso   1.000  C 
  C117     1.0000 0.68670  0.12170  0.65000  Biso   1.000  C 
  C118     1.0000 0.31330  0.12170  0.85000  Biso   1.000  C 
  C119     1.0000 0.18670  0.62170  0.65000  Biso   1.000  C 
  C120     1.0000 0.81330  0.62170  0.85000  Biso   1.000  C 
  H73      1.0000 0.35770  0.91330  0.37803  Biso   1.000  H 
  H74      1.0000 0.64230  0.91330  0.12197  Biso   1.000  H 
  H75      1.0000 0.85770  0.41330  0.37803  Biso   1.000  H 
  H76      1.0000 0.14230  0.41330  0.12197  Biso   1.000  H 
  H77      1.0000 0.64230  0.08670  0.62197  Biso   1.000  H 
  H78      1.0000 0.35770  0.08670  0.87803  Biso   1.000  H 
  H79      1.0000 0.14230  0.58670  0.62197  Biso   1.000  H 
  H80      1.0000 0.85770  0.58670  0.87803  Biso   1.000  H 
  C121     1.0000 0.48180  0.14530  0.67870  Biso   1.000  C 
  C122     1.0000 0.51820  0.14530  0.82130  Biso   1.000  C 
  C123     1.0000 0.98180  0.64530  0.67870  Biso   1.000  C 
  C124     1.0000 0.01820  0.64530  0.82130  Biso   1.000  C 
  C125     1.0000 0.51820  0.85470  0.32130  Biso   1.000  C 
  C126     1.0000 0.48180  0.85470  0.17870  Biso   1.000  C 
  C127     1.0000 0.01820  0.35470  0.32130  Biso   1.000  C 
  C128     1.0000 0.98180  0.35470  0.17870  Biso   1.000  C 
  H81      1.0000 0.46929  0.10892  0.62825  Biso   1.000  H 
  H82      1.0000 0.53071  0.10892  0.87175  Biso   1.000  H 
  H83      1.0000 0.96929  0.60892  0.62825  Biso   1.000  H 
  H84      1.0000 0.03071  0.60892  0.87175  Biso   1.000  H 
  H85      1.0000 0.53071  0.89108  0.37175  Biso   1.000  H 
  H86      1.0000 0.46929  0.89108  0.12825  Biso   1.000  H 
  H87      1.0000 0.03071  0.39108  0.37175  Biso   1.000  H 
  H88      1.0000 0.96929  0.39108  0.12825  Biso   1.000  H 
  C129     1.0000 0.50000  0.08970  0.75000  Biso   1.000  C 
  C130     1.0000 0.00000  0.58970  0.75000  Biso   1.000  C 
  C131     1.0000 0.50000  0.91030  0.25000  Biso   1.000  C 
  C132     1.0000 0.00000  0.41030  0.25000  Biso   1.000  C 
  H89      1.0000 0.50000  0.01452  0.75000  Biso   1.000  H 
  H90      1.0000 0.00000  0.51452  0.75000  Biso   1.000  H 
  H91      1.0000 0.50000  0.98548  0.25000  Biso   1.000  H 
  H92      1.0000 0.00000  0.48548  0.25000  Biso   1.000  H 
  H93      1.0000 0.55800  0.62780  0.08153  Biso   1.000  H 
  H94      1.0000 0.44200  0.62780  0.41847  Biso   1.000  H 
  H95      1.0000 0.05801  0.12780  0.08153  Biso   1.000  H 
  H96      1.0000 0.94200  0.12780  0.41847  Biso   1.000  H 
  H97      1.0000 0.44200  0.37220  0.91847  Biso   1.000  H 
  H98      1.0000 0.55800  0.37220  0.58153  Biso   1.000  H 
  H99      1.0000 0.94200  0.87220  0.91847  Biso   1.000  H 
  H100     1.0000 0.05801  0.87220  0.58153  Biso   1.000  H 
