data_image0
_cell_length_a       18.686
_cell_length_b       18.686
_cell_length_c       13.836
_cell_angle_alpha    90
_cell_angle_beta     90
_cell_angle_gamma    120

_symmetry_space_group_name_H-M    "P 1"
_symmetry_int_tables_number       1

loop_
  _symmetry_equiv_pos_as_xyz
  'x, y, z'

loop_
  _atom_site_label
  _atom_site_occupancy
  _atom_site_fract_x
  _atom_site_fract_y
  _atom_site_fract_z
  _atom_site_thermal_displace_type
  _atom_site_B_iso_or_equiv
  _atom_site_type_symbol
  Ni1      1.0000 0.66670  0.33330  0.11279  Biso   1.000  Ni
  N1       1.0000 0.56604  0.24252  0.03310  Biso   1.000  N 
  C1       1.0000 0.49160  0.18630  0.07450  Biso   1.000  C 
  H1       1.0000 0.47580  0.18820  0.13770  Biso   1.000  H 
  C2       1.0000 0.44550  0.12810  0.00830  Biso   1.000  C 
  H2       1.0000 0.39260  0.08350  0.01720  Biso   1.000  H 
  N2       1.0000 0.49190  0.14750  0.92560  Biso   1.000  N 
  C3       1.0000 0.46940  0.10220  0.83550  Biso   1.000  C 
  C4       1.0000 0.48600  0.14600  0.75000  Biso   1.000  C 
  H3       1.0000 0.50770  0.20290  0.75000  Biso   1.000  H 
  C5       1.0000 0.46940  0.10220  0.66450  Biso   1.000  C 
  N3       1.0000 0.49190  0.14750  0.57440  Biso   1.000  N 
  C6       1.0000 0.44550  0.12810  0.49170  Biso   1.000  C 
  C7       1.0000 0.49160  0.18630  0.42550  Biso   1.000  C 
  H4       1.0000 0.47580  0.18820  0.36230  Biso   1.000  H 
  N4       1.0000 0.56604  0.24252  0.46690  Biso   1.000  N 
  C8       1.0000 0.56270  0.21620  0.55470  Biso   1.000  C 
  H5       1.0000 0.60540  0.24270  0.59920  Biso   1.000  H 
  Ni2      1.0000 0.66660  0.33330  0.38721  Biso   1.000  Ni
  N5       1.0000 0.65335  0.23671  0.29810  Biso   1.000  N 
  N6       1.0000 0.63117  0.15963  0.33040  Biso   1.000  N 
  C9       1.0000 0.61760  0.11460  0.25000  Biso   1.000  C 
  C10      1.0000 0.58510  0.02620  0.25000  Biso   1.000  C 
  C11      1.0000 0.56640  0.98300  0.16260  Biso   1.000  C 
  C12      1.0000 0.53060  0.89780  0.16450  Biso   1.000  C 
  C13      1.0000 0.51400  0.85400  0.25000  Biso   1.000  C 
  H6       1.0000 0.49230  0.79710  0.25000  Biso   1.000  H 
  C14      1.0000 0.53060  0.89780  0.33550  Biso   1.000  C 
  N7       1.0000 0.50810  0.85250  0.42560  Biso   1.000  N 
  C15      1.0000 0.43730  0.78380  0.44530  Biso   1.000  C 
  H7       1.0000 0.39460  0.75730  0.40080  Biso   1.000  H 
  N8       1.0000 0.43396  0.75748  0.53310  Biso   1.000  N 
  C16      1.0000 0.50840  0.81370  0.57450  Biso   1.000  C 
  H8       1.0000 0.52420  0.81180  0.63770  Biso   1.000  H 
  C17      1.0000 0.55450  0.87190  0.50830  Biso   1.000  C 
  H9       1.0000 0.60740  0.91650  0.51720  Biso   1.000  H 
  Ni3      1.0000 0.33340  0.66670  0.61279  Biso   1.000  Ni
  N9       1.0000 0.23671  0.58336  0.70190  Biso   1.000  N 
  N10      1.0000 0.23671  0.58336  0.79810  Biso   1.000  N 
  Ni4      1.0000 0.33330  0.66670  0.88721  Biso   1.000  Ni
  N11      1.0000 0.32352  0.56604  0.96690  Biso   1.000  N 
  C18      1.0000 0.30530  0.49160  0.92550  Biso   1.000  C 
  H10      1.0000 0.28760  0.47580  0.86230  Biso   1.000  H 
  C19      1.0000 0.31740  0.44550  0.99170  Biso   1.000  C 
  H11      1.0000 0.30910  0.39260  0.98280  Biso   1.000  H 
  N12      1.0000 0.34440  0.49190  0.07440  Biso   1.000  N 
  C20      1.0000 0.34650  0.56270  0.05470  Biso   1.000  C 
  H12      1.0000 0.36270  0.60540  0.09920  Biso   1.000  H 
  C21      1.0000 0.36720  0.46940  0.16450  Biso   1.000  C 
  C22      1.0000 0.34000  0.48600  0.25000  Biso   1.000  C 
  H13      1.0000 0.30480  0.50770  0.25000  Biso   1.000  H 
  C23      1.0000 0.36720  0.46940  0.33550  Biso   1.000  C 
  N13      1.0000 0.34440  0.49190  0.42560  Biso   1.000  N 
  C24      1.0000 0.34650  0.56270  0.44530  Biso   1.000  C 
  H14      1.0000 0.36270  0.60540  0.40080  Biso   1.000  H 
  N14      1.0000 0.32352  0.56604  0.53310  Biso   1.000  N 
  C25      1.0000 0.30530  0.49160  0.57450  Biso   1.000  C 
  H15      1.0000 0.28760  0.47580  0.63770  Biso   1.000  H 
  C26      1.0000 0.31740  0.44550  0.50830  Biso   1.000  C 
  H16      1.0000 0.30910  0.39260  0.51720  Biso   1.000  H 
  C27      1.0000 0.41660  0.43360  0.33740  Biso   1.000  C 
  H17      1.0000 0.43330  0.42230  0.39600  Biso   1.000  H 
  C28      1.0000 0.44110  0.41490  0.25000  Biso   1.000  C 
  C29      1.0000 0.41660  0.43360  0.16260  Biso   1.000  C 
  H18      1.0000 0.43330  0.42230  0.10400  Biso   1.000  H 
  C30      1.0000 0.49700  0.38240  0.25000  Biso   1.000  C 
  N15      1.0000 0.52846  0.36883  0.16960  Biso   1.000  N 
  N16      1.0000 0.58336  0.34665  0.20190  Biso   1.000  N 
  N17      1.0000 0.58336  0.34665  0.29810  Biso   1.000  N 
  N18      1.0000 0.52846  0.36883  0.33040  Biso   1.000  N 
  N19      1.0000 0.41664  0.65335  0.79810  Biso   1.000  N 
  N20      1.0000 0.47154  0.63117  0.83040  Biso   1.000  N 
  C31      1.0000 0.50300  0.61760  0.75000  Biso   1.000  C 
  C32      1.0000 0.55890  0.58510  0.75000  Biso   1.000  C 
  C33      1.0000 0.58340  0.56640  0.83740  Biso   1.000  C 
  H19      1.0000 0.56670  0.57770  0.89600  Biso   1.000  H 
  C34      1.0000 0.63280  0.53060  0.83550  Biso   1.000  C 
  C35      1.0000 0.66000  0.51400  0.75000  Biso   1.000  C 
  H20      1.0000 0.69520  0.49230  0.75000  Biso   1.000  H 
  C36      1.0000 0.63280  0.53060  0.66450  Biso   1.000  C 
  N21      1.0000 0.65560  0.50810  0.57440  Biso   1.000  N 
  C37      1.0000 0.68260  0.55450  0.49170  Biso   1.000  C 
  C38      1.0000 0.69470  0.50840  0.42550  Biso   1.000  C 
  H21      1.0000 0.71240  0.52420  0.36230  Biso   1.000  H 
  N22      1.0000 0.67648  0.43396  0.46690  Biso   1.000  N 
  C39      1.0000 0.65350  0.43730  0.55470  Biso   1.000  C 
  H22      1.0000 0.63730  0.39460  0.59920  Biso   1.000  H 
  H23      1.0000 0.69090  0.60740  0.48280  Biso   1.000  H 
  C40      1.0000 0.58340  0.56640  0.66260  Biso   1.000  C 
  H24      1.0000 0.56670  0.57770  0.60400  Biso   1.000  H 
  N23      1.0000 0.65560  0.50810  0.92560  Biso   1.000  N 
  C41      1.0000 0.65350  0.43730  0.94530  Biso   1.000  C 
  H25      1.0000 0.63730  0.39460  0.90080  Biso   1.000  H 
  N24      1.0000 0.67648  0.43396  0.03310  Biso   1.000  N 
  C42      1.0000 0.69470  0.50840  0.07450  Biso   1.000  C 
  H26      1.0000 0.71240  0.52420  0.13770  Biso   1.000  H 
  C43      1.0000 0.68260  0.55450  0.00830  Biso   1.000  C 
  H27      1.0000 0.69090  0.60740  0.01720  Biso   1.000  H 
  N25      1.0000 0.47154  0.63117  0.66960  Biso   1.000  N 
  N26      1.0000 0.41664  0.65335  0.70190  Biso   1.000  N 
  N27      1.0000 0.24252  0.67648  0.96690  Biso   1.000  N 
  C44      1.0000 0.18630  0.69470  0.92550  Biso   1.000  C 
  H28      1.0000 0.18820  0.71240  0.86230  Biso   1.000  H 
  C45      1.0000 0.12810  0.68260  0.99170  Biso   1.000  C 
  H29      1.0000 0.08350  0.69090  0.98280  Biso   1.000  H 
  N28      1.0000 0.14750  0.65560  0.07440  Biso   1.000  N 
  C46      1.0000 0.10220  0.63280  0.16450  Biso   1.000  C 
  C47      1.0000 0.14600  0.66000  0.25000  Biso   1.000  C 
  H30      1.0000 0.20290  0.69520  0.25000  Biso   1.000  H 
  C48      1.0000 0.10220  0.63280  0.33550  Biso   1.000  C 
  N29      1.0000 0.14750  0.65560  0.42560  Biso   1.000  N 
  C49      1.0000 0.21620  0.65350  0.44530  Biso   1.000  C 
  H31      1.0000 0.24270  0.63730  0.40080  Biso   1.000  H 
  N30      1.0000 0.24252  0.67648  0.53310  Biso   1.000  N 
  C50      1.0000 0.18630  0.69470  0.57450  Biso   1.000  C 
  H32      1.0000 0.18820  0.71240  0.63770  Biso   1.000  H 
  C51      1.0000 0.12810  0.68260  0.50830  Biso   1.000  C 
  H33      1.0000 0.08350  0.69090  0.51720  Biso   1.000  H 
  C52      1.0000 0.01700  0.58340  0.33740  Biso   1.000  C 
  C53      1.0000 0.97380  0.55890  0.25000  Biso   1.000  C 
  C54      1.0000 0.01700  0.58340  0.16260  Biso   1.000  C 
  H34      1.0000 0.98900  0.56670  0.10400  Biso   1.000  H 
  C55      1.0000 0.88540  0.50300  0.25000  Biso   1.000  C 
  N31      1.0000 0.84037  0.47154  0.16960  Biso   1.000  N 
  N32      1.0000 0.76329  0.41664  0.20190  Biso   1.000  N 
  N33      1.0000 0.76329  0.41664  0.29810  Biso   1.000  N 
  N34      1.0000 0.84037  0.47154  0.33040  Biso   1.000  N 
  H35      1.0000 0.98900  0.56670  0.39600  Biso   1.000  H 
  C56      1.0000 0.21620  0.65350  0.05470  Biso   1.000  C 
  H36      1.0000 0.24270  0.63730  0.09920  Biso   1.000  H 
  N35      1.0000 0.34665  0.76329  0.79810  Biso   1.000  N 
  N36      1.0000 0.36883  0.84037  0.83040  Biso   1.000  N 
  C57      1.0000 0.38240  0.88540  0.75000  Biso   1.000  C 
  C58      1.0000 0.41490  0.97380  0.75000  Biso   1.000  C 
  C59      1.0000 0.43360  0.01700  0.66260  Biso   1.000  C 
  H37      1.0000 0.42230  0.98900  0.60400  Biso   1.000  H 
  C60      1.0000 0.43360  0.01700  0.83740  Biso   1.000  C 
  H38      1.0000 0.42230  0.98900  0.89600  Biso   1.000  H 
  N37      1.0000 0.36883  0.84037  0.66960  Biso   1.000  N 
  N38      1.0000 0.34665  0.76329  0.70190  Biso   1.000  N 
  N39      1.0000 0.43396  0.75748  0.96690  Biso   1.000  N 
  C61      1.0000 0.50840  0.81370  0.92550  Biso   1.000  C 
  H39      1.0000 0.52420  0.81180  0.86230  Biso   1.000  H 
  C62      1.0000 0.55450  0.87190  0.99170  Biso   1.000  C 
  H40      1.0000 0.60740  0.91650  0.98280  Biso   1.000  H 
  N40      1.0000 0.50810  0.85250  0.07440  Biso   1.000  N 
  C63      1.0000 0.43730  0.78380  0.05470  Biso   1.000  C 
  H41      1.0000 0.39460  0.75730  0.09920  Biso   1.000  H 
  N41      1.0000 0.15963  0.52846  0.83040  Biso   1.000  N 
  C64      1.0000 0.11460  0.49700  0.75000  Biso   1.000  C 
  C65      1.0000 0.02620  0.44110  0.75000  Biso   1.000  C 
  C66      1.0000 0.98300  0.41660  0.66260  Biso   1.000  C 
  C67      1.0000 0.89780  0.36720  0.66450  Biso   1.000  C 
  C68      1.0000 0.85400  0.34000  0.75000  Biso   1.000  C 
  H42      1.0000 0.79710  0.30480  0.75000  Biso   1.000  H 
  C69      1.0000 0.89780  0.36720  0.83550  Biso   1.000  C 
  N42      1.0000 0.85250  0.34440  0.92560  Biso   1.000  N 
  C70      1.0000 0.78380  0.34650  0.94530  Biso   1.000  C 
  H43      1.0000 0.75730  0.36270  0.90080  Biso   1.000  H 
  N43      1.0000 0.75748  0.32352  0.03310  Biso   1.000  N 
  C71      1.0000 0.81370  0.30530  0.07450  Biso   1.000  C 
  H44      1.0000 0.81180  0.28760  0.13770  Biso   1.000  H 
  C72      1.0000 0.87190  0.31740  0.00830  Biso   1.000  C 
  H45      1.0000 0.91650  0.30910  0.01720  Biso   1.000  H 
  C73      1.0000 0.98300  0.41660  0.83740  Biso   1.000  C 
  H46      1.0000 0.01100  0.43330  0.89600  Biso   1.000  H 
  N44      1.0000 0.85250  0.34440  0.57440  Biso   1.000  N 
  C74      1.0000 0.87190  0.31740  0.49170  Biso   1.000  C 
  C75      1.0000 0.81370  0.30530  0.42550  Biso   1.000  C 
  H47      1.0000 0.81180  0.28760  0.36230  Biso   1.000  H 
  N45      1.0000 0.75748  0.32352  0.46690  Biso   1.000  N 
  C76      1.0000 0.78380  0.34650  0.55470  Biso   1.000  C 
  H48      1.0000 0.75730  0.36270  0.59920  Biso   1.000  H 
  H49      1.0000 0.91650  0.30910  0.48280  Biso   1.000  H 
  H50      1.0000 0.01100  0.43330  0.60400  Biso   1.000  H 
  N46      1.0000 0.15963  0.52846  0.66960  Biso   1.000  N 
  C77      1.0000 0.56640  0.98300  0.33740  Biso   1.000  C 
  H51      1.0000 0.57770  0.01100  0.39600  Biso   1.000  H 
  H52      1.0000 0.57770  0.01100  0.10400  Biso   1.000  H 
  N47      1.0000 0.63117  0.15963  0.16960  Biso   1.000  N 
  N48      1.0000 0.65335  0.23671  0.20190  Biso   1.000  N 
  H53      1.0000 0.39260  0.08350  0.48280  Biso   1.000  H 
  C78      1.0000 0.56270  0.21620  0.94530  Biso   1.000  C 
  H54      1.0000 0.60540  0.24270  0.90080  Biso   1.000  H 
