data_image0
_cell_length_a       8.0247
_cell_length_b       12.556
_cell_length_c       12.669
_cell_angle_alpha    81.121
_cell_angle_beta     75.053
_cell_angle_gamma    77.378

_symmetry_space_group_name_H-M    "P 1"
_symmetry_int_tables_number       1

loop_
  _symmetry_equiv_pos_as_xyz
  'x, y, z'

loop_
  _atom_site_label
  _atom_site_occupancy
  _atom_site_fract_x
  _atom_site_fract_y
  _atom_site_fract_z
  _atom_site_thermal_displace_type
  _atom_site_B_iso_or_equiv
  _atom_site_type_symbol
  Cu1      1.0000 0.17426  0.22119  0.21151  Biso   1.000  Cu
  N1       1.0000 0.02750  0.12200  0.32580  Biso   1.000  N 
  C1       1.0000 0.95150  0.05350  0.29010  Biso   1.000  C 
  C2       1.0000 0.80080  0.01650  0.34940  Biso   1.000  C 
  C3       1.0000 0.71950  0.05140  0.45310  Biso   1.000  C 
  C4       1.0000 0.55110  0.02450  0.51800  Biso   1.000  C 
  H1       1.0000 0.51242  0.04361  0.59126  Biso   1.000  H 
  C5       1.0000 0.44890  0.97550  0.48200  Biso   1.000  C 
  H2       1.0000 0.48758  0.95639  0.40874  Biso   1.000  H 
  C6       1.0000 0.28050  0.94860  0.54690  Biso   1.000  C 
  C7       1.0000 0.19510  0.88290  0.50630  Biso   1.000  C 
  H3       1.0000 0.24101  0.86097  0.43437  Biso   1.000  H 
  C8       1.0000 0.04460  0.85020  0.57110  Biso   1.000  C 
  N2       1.0000 0.97250  0.87800  0.67420  Biso   1.000  N 
  C9       1.0000 0.04850  0.94650  0.70990  Biso   1.000  C 
  C10      1.0000 0.19920  0.98350  0.65060  Biso   1.000  C 
  H4       1.0000 0.24698  0.03208  0.68002  Biso   1.000  H 
  H5       1.0000 0.99526  0.97106  0.78024  Biso   1.000  H 
  Cu2      1.0000 0.82574  0.77881  0.78849  Biso   1.000  Cu
  N3       1.0000 0.60370  0.86350  0.87470  Biso   1.000  N 
  C11      1.0000 0.48260  0.80990  0.94170  Biso   1.000  C 
  H6       1.0000 0.51858  0.73458  0.96491  Biso   1.000  H 
  C12      1.0000 0.30880  0.85770  0.97900  Biso   1.000  C 
  H7       1.0000 0.22858  0.81556  0.02608  Biso   1.000  H 
  C13      1.0000 0.25190  0.96890  0.94680  Biso   1.000  C 
  C14      1.0000 0.06820  0.02460  0.97670  Biso   1.000  C 
  H8       1.0000 0.04441  0.10225  0.96175  Biso   1.000  H 
  C15      1.0000 0.93180  0.97540  0.02330  Biso   1.000  C 
  H9       1.0000 0.95559  0.89775  0.03825  Biso   1.000  H 
  C16      1.0000 0.74810  0.03110  0.05320  Biso   1.000  C 
  C17      1.0000 0.69120  0.14230  0.02100  Biso   1.000  C 
  C18      1.0000 0.51740  0.19010  0.05830  Biso   1.000  C 
  H10      1.0000 0.48142  0.26542  0.03510  Biso   1.000  H 
  N4       1.0000 0.39630  0.13650  0.12530  Biso   1.000  N 
  C19      1.0000 0.44940  0.02840  0.15260  Biso   1.000  C 
  H11      1.0000 0.36545  0.98768  0.19760  Biso   1.000  H 
  C20      1.0000 0.62060  0.97390  0.11800  Biso   1.000  C 
  H12      1.0000 0.65121  0.89748  0.13855  Biso   1.000  H 
  H13      1.0000 0.77142  0.18444  0.97392  Biso   1.000  H 
  C21      1.0000 0.37940  0.02610  0.88200  Biso   1.000  C 
  H14      1.0000 0.34879  0.10252  0.86145  Biso   1.000  H 
  C22      1.0000 0.55060  0.97160  0.84740  Biso   1.000  C 
  H15      1.0000 0.63455  0.01232  0.80240  Biso   1.000  H 
  N5       1.0000 0.74990  0.68500  0.69760  Biso   1.000  N 
  C23      1.0000 0.61240  0.72540  0.65070  Biso   1.000  C 
  H16      1.0000 0.55401  0.79894  0.65993  Biso   1.000  H 
  C24      1.0000 0.55240  0.66640  0.59050  Biso   1.000  C 
  H17      1.0000 0.45559  0.69924  0.55895  Biso   1.000  H 
  C25      1.0000 0.63450  0.55740  0.57590  Biso   1.000  C 
  C26      1.0000 0.57340  0.48760  0.51770  Biso   1.000  C 
  H18      1.0000 0.64535  0.41800  0.50396  Biso   1.000  H 
  C27      1.0000 0.42660  0.51240  0.48230  Biso   1.000  C 
  H19      1.0000 0.35465  0.58200  0.49604  Biso   1.000  H 
  C28      1.0000 0.36550  0.44260  0.42410  Biso   1.000  C 
  C29      1.0000 0.44760  0.33360  0.40950  Biso   1.000  C 
  C30      1.0000 0.38760  0.27460  0.34930  Biso   1.000  C 
  H20      1.0000 0.44599  0.20106  0.34007  Biso   1.000  H 
  N6       1.0000 0.25010  0.31500  0.30240  Biso   1.000  N 
  C31      1.0000 0.16770  0.41890  0.31940  Biso   1.000  C 
  C32      1.0000 0.21970  0.48360  0.37860  Biso   1.000  C 
  H21      1.0000 0.15656  0.55613  0.38850  Biso   1.000  H 
  H22      1.0000 0.06882  0.44882  0.28899  Biso   1.000  H 
  H23      1.0000 0.54441  0.30076  0.44105  Biso   1.000  H 
  C33      1.0000 0.78030  0.51640  0.62140  Biso   1.000  C 
  H24      1.0000 0.84344  0.44387  0.61150  Biso   1.000  H 
  C34      1.0000 0.83230  0.58110  0.68060  Biso   1.000  C 
  H25      1.0000 0.93118  0.55118  0.71101  Biso   1.000  H 
  N7       1.0000 0.00480  0.68450  0.86740  Biso   1.000  N 
  C35      1.0000 0.16560  0.64370  0.80850  Biso   1.000  C 
  H26      1.0000 0.18664  0.65508  0.73062  Biso   1.000  H 
  C36      1.0000 0.30150  0.58630  0.85470  Biso   1.000  C 
  H27      1.0000 0.41237  0.55960  0.80914  Biso   1.000  H 
  C37      1.0000 0.27510  0.56780  0.96870  Biso   1.000  C 
  C38      1.0000 0.41450  0.51290  0.02440  Biso   1.000  C 
  H28      1.0000 0.38112  0.49402  0.10147  Biso   1.000  H 
  C39      1.0000 0.58550  0.48710  0.97560  Biso   1.000  C 
  H29      1.0000 0.61888  0.50597  0.89853  Biso   1.000  H 
  C40      1.0000 0.72490  0.43220  0.03130  Biso   1.000  C 
  C41      1.0000 0.69850  0.41370  0.14530  Biso   1.000  C 
  H30      1.0000 0.58763  0.44040  0.19086  Biso   1.000  H 
  C42      1.0000 0.83440  0.35630  0.19150  Biso   1.000  C 
  H31      1.0000 0.81336  0.34492  0.26938  Biso   1.000  H 
  N8       1.0000 0.99520  0.31550  0.13260  Biso   1.000  N 
  C43      1.0000 0.02250  0.33640  0.02310  Biso   1.000  C 
  H32      1.0000 0.13596  0.31098  0.97962  Biso   1.000  H 
  C44      1.0000 0.89250  0.39370  0.97000  Biso   1.000  C 
  H33      1.0000 0.91822  0.40640  0.89210  Biso   1.000  H 
  C45      1.0000 0.10750  0.60630  0.03000  Biso   1.000  C 
  H34      1.0000 0.08178  0.59360  0.10790  Biso   1.000  H 
  C46      1.0000 0.97750  0.66360  0.97690  Biso   1.000  C 
  H35      1.0000 0.86404  0.68902  0.02038  Biso   1.000  H 
  H36      1.0000 0.98895  0.80606  0.54180  Biso   1.000  H 
  C47      1.0000 0.80490  0.11710  0.49370  Biso   1.000  C 
  C48      1.0000 0.95540  0.14980  0.42890  Biso   1.000  C 
  H37      1.0000 0.01105  0.19394  0.45820  Biso   1.000  H 
  H38      1.0000 0.75899  0.13903  0.56563  Biso   1.000  H 
  H39      1.0000 0.75302  0.96792  0.31998  Biso   1.000  H 
  H40      1.0000 0.00474  0.02894  0.21976  Biso   1.000  H 
