data_image0
_cell_length_a       14.7485
_cell_length_b       22.317
_cell_length_c       10.457
_cell_angle_alpha    90
_cell_angle_beta     90
_cell_angle_gamma    90

_symmetry_space_group_name_H-M    "P 1"
_symmetry_int_tables_number       1

loop_
  _symmetry_equiv_pos_as_xyz
  'x, y, z'

loop_
  _atom_site_label
  _atom_site_occupancy
  _atom_site_fract_x
  _atom_site_fract_y
  _atom_site_fract_z
  _atom_site_thermal_displace_type
  _atom_site_B_iso_or_equiv
  _atom_site_type_symbol
  Zn1      1.0000 0.67930  0.25000  0.25000  Biso   1.000  Zn
  Cl1      1.0000 0.60237  0.16851  0.29811  Biso   1.000  Cl
  N1       1.0000 0.77073  0.22861  0.10840  Biso   1.000  N 
  C1       1.0000 0.78921  0.17068  0.08520  Biso   1.000  C 
  H1       1.0000 0.75710  0.14170  0.13040  Biso   1.000  H 
  C2       1.0000 0.85350  0.15185  0.99750  Biso   1.000  C 
  C3       1.0000 0.90053  0.19586  0.93160  Biso   1.000  C 
  H2       1.0000 0.94400  0.18530  0.87130  Biso   1.000  H 
  C4       1.0000 0.88270  0.25516  0.95570  Biso   1.000  C 
  H3       1.0000 0.91480  0.28500  0.91310  Biso   1.000  H 
  C5       1.0000 0.81704  0.27007  0.04350  Biso   1.000  C 
  H4       1.0000 0.80450  0.31030  0.05810  Biso   1.000  H 
  C6       1.0000 0.86800  0.08693  0.97870  Biso   1.000  C 
  C7       1.0000 0.87850  0.06335  0.85700  Biso   1.000  C 
  H5       1.0000 0.87900  0.08860  0.78620  Biso   1.000  H 
  C8       1.0000 0.88840  0.00229  0.84110  Biso   1.000  C 
  C9       1.0000 0.88915  0.96341  0.94300  Biso   1.000  C 
  C10      1.0000 0.88033  0.98724  0.06330  Biso   1.000  C 
  H6       1.0000 0.88170  0.96200  0.13400  Biso   1.000  H 
  C11      1.0000 0.86955  0.04792  0.08110  Biso   1.000  C 
  H7       1.0000 0.86320  0.06290  0.16360  Biso   1.000  H 
  C12      1.0000 0.89775  0.89802  0.92710  Biso   1.000  C 
  H8       1.0000 0.90010  0.87420  0.00000  Biso   1.000  H 
  N2       1.0000 0.90201  0.87295  0.81950  Biso   1.000  N 
  C13      1.0000 0.90427  0.80728  0.81960  Biso   1.000  C 
  C14      1.0000 0.82052  0.78417  0.75230  Biso   1.000  C 
  C15      1.0000 0.82052  0.71583  0.74770  Biso   1.000  C 
  H9       1.0000 0.76680  0.70200  0.70300  Biso   1.000  H 
  H10      1.0000 0.81860  0.70010  0.83410  Biso   1.000  H 
  C16      1.0000 0.90427  0.69272  0.68040  Biso   1.000  C 
  H11      1.0000 0.90440  0.70720  0.59190  Biso   1.000  H 
  N3       1.0000 0.90201  0.62705  0.68050  Biso   1.000  N 
  C17      1.0000 0.89775  0.60198  0.57290  Biso   1.000  C 
  H12      1.0000 0.90010  0.62580  0.50000  Biso   1.000  H 
  C18      1.0000 0.88915  0.53659  0.55700  Biso   1.000  C 
  C19      1.0000 0.88840  0.49771  0.65890  Biso   1.000  C 
  H13      1.0000 0.89480  0.51300  0.74110  Biso   1.000  H 
  C20      1.0000 0.87850  0.43665  0.64300  Biso   1.000  C 
  H14      1.0000 0.87900  0.41140  0.71380  Biso   1.000  H 
  C21      1.0000 0.86800  0.41307  0.52130  Biso   1.000  C 
  C22      1.0000 0.85350  0.34815  0.50250  Biso   1.000  C 
  C23      1.0000 0.90053  0.30414  0.56840  Biso   1.000  C 
  C24      1.0000 0.88270  0.24484  0.54430  Biso   1.000  C 
  H15      1.0000 0.91480  0.21500  0.58690  Biso   1.000  H 
  C25      1.0000 0.81704  0.22993  0.45650  Biso   1.000  C 
  H16      1.0000 0.80450  0.18970  0.44190  Biso   1.000  H 
  N4       1.0000 0.77073  0.27139  0.39160  Biso   1.000  N 
  C26      1.0000 0.78921  0.32932  0.41480  Biso   1.000  C 
  H17      1.0000 0.75710  0.35830  0.36960  Biso   1.000  H 
  H18      1.0000 0.94400  0.31470  0.62870  Biso   1.000  H 
  C27      1.0000 0.86955  0.45208  0.41890  Biso   1.000  C 
  H19      1.0000 0.86320  0.43710  0.33640  Biso   1.000  H 
  C28      1.0000 0.88033  0.51276  0.43670  Biso   1.000  C 
  H20      1.0000 0.88170  0.53800  0.36600  Biso   1.000  H 
  C29      1.0000 0.98794  0.71580  0.74840  Biso   1.000  C 
  H21      1.0000 0.98930  0.70040  0.83510  Biso   1.000  H 
  H22      1.0000 0.04180  0.70170  0.70440  Biso   1.000  H 
  C30      1.0000 0.98794  0.78420  0.75160  Biso   1.000  C 
  H23      1.0000 0.98930  0.79960  0.66490  Biso   1.000  H 
  H24      1.0000 0.04180  0.79830  0.79560  Biso   1.000  H 
  H25      1.0000 0.76680  0.79800  0.79700  Biso   1.000  H 
  H26      1.0000 0.81860  0.79990  0.66590  Biso   1.000  H 
  H27      1.0000 0.90440  0.79280  0.90810  Biso   1.000  H 
  H28      1.0000 0.89480  0.98700  0.75890  Biso   1.000  H 
  Cl2      1.0000 0.60237  0.33149  0.20189  Biso   1.000  Cl
