data_image0
_cell_length_a       14.1558
_cell_length_b       14.1558
_cell_length_c       3.8543
_cell_angle_alpha    90
_cell_angle_beta     90
_cell_angle_gamma    90

_symmetry_space_group_name_H-M    "P 1"
_symmetry_int_tables_number       1

loop_
  _symmetry_equiv_pos_as_xyz
  'x, y, z'

loop_
  _atom_site_label
  _atom_site_occupancy
  _atom_site_fract_x
  _atom_site_fract_y
  _atom_site_fract_z
  _atom_site_thermal_displace_type
  _atom_site_B_iso_or_equiv
  _atom_site_type_symbol
  Cd1      1.0000 0.50000  0.00000  0.50000  Biso   1.000  Cd
  Cl1      1.0000 0.41050  0.08950  0.00000  Biso   1.000  Cl
  N1       1.0000 0.61910  0.11910  0.50000  Biso   1.000  N 
  C1       1.0000 0.70640  0.09960  0.38270  Biso   1.000  C 
  C2       1.0000 0.77640  0.16720  0.38410  Biso   1.000  C 
  C3       1.0000 0.75760  0.25760  0.50000  Biso   1.000  C 
  H1       1.0000 0.80650  0.30650  0.50000  Biso   1.000  H 
  C4       1.0000 0.66720  0.27640  0.61590  Biso   1.000  C 
  Br1      1.0000 0.63535  0.39780  0.78390  Biso   1.000  Br
  C5       1.0000 0.59960  0.20640  0.61730  Biso   1.000  C 
  H2       1.0000 0.53620  0.22050  0.70540  Biso   1.000  H 
  Br2      1.0000 0.89780  0.13535  0.21610  Biso   1.000  Br
  H3       1.0000 0.72050  0.03620  0.29460  Biso   1.000  H 
  Cl2      1.0000 0.58950  0.91050  0.00000  Biso   1.000  Cl
  N2       1.0000 0.38090  0.88090  0.50000  Biso   1.000  N 
  C6       1.0000 0.40040  0.79360  0.61730  Biso   1.000  C 
  C7       1.0000 0.33280  0.72360  0.61590  Biso   1.000  C 
  C8       1.0000 0.24240  0.74240  0.50000  Biso   1.000  C 
  H4       1.0000 0.19350  0.69350  0.50000  Biso   1.000  H 
  C9       1.0000 0.22360  0.83280  0.38410  Biso   1.000  C 
  Br3      1.0000 0.10220  0.86465  0.21610  Biso   1.000  Br
  C10      1.0000 0.29360  0.90040  0.38270  Biso   1.000  C 
  H5       1.0000 0.27950  0.96380  0.29460  Biso   1.000  H 
  Br4      1.0000 0.36465  0.60220  0.78390  Biso   1.000  Br
  H6       1.0000 0.46380  0.77950  0.70540  Biso   1.000  H 
