data_image0
_cell_length_a       13.775
_cell_length_b       14.507
_cell_length_c       24.244
_cell_angle_alpha    83.217
_cell_angle_beta     81.797
_cell_angle_gamma    65.572

_symmetry_space_group_name_H-M    "P 1"
_symmetry_int_tables_number       1

loop_
  _symmetry_equiv_pos_as_xyz
  'x, y, z'

loop_
  _atom_site_label
  _atom_site_occupancy
  _atom_site_fract_x
  _atom_site_fract_y
  _atom_site_fract_z
  _atom_site_thermal_displace_type
  _atom_site_B_iso_or_equiv
  _atom_site_type_symbol
  Cd1      1.0000 0.74745  0.77374  0.60062  Biso   1.000  Cd
  C1       1.0000 0.78460  0.82090  0.49230  Biso   1.000  C 
  C2       1.0000 0.80170  0.84560  0.43040  Biso   1.000  C 
  C3       1.0000 0.88630  0.87050  0.40630  Biso   1.000  C 
  C4       1.0000 0.90120  0.89350  0.34930  Biso   1.000  C 
  C5       1.0000 0.83030  0.89210  0.31430  Biso   1.000  C 
  C6       1.0000 0.74550  0.86730  0.33810  Biso   1.000  C 
  H1       1.0000 0.69620  0.86590  0.31480  Biso   1.000  H 
  C7       1.0000 0.73110  0.84430  0.39520  Biso   1.000  C 
  H2       1.0000 0.67250  0.82760  0.41020  Biso   1.000  H 
  Si1      1.0000 0.87110  0.89460  0.23530  Biso   1.000  Si
  C8       1.0000 0.73420  0.96890  0.20660  Biso   1.000  C 
  C9       1.0000 0.70770  0.94080  0.15990  Biso   1.000  C 
  C10      1.0000 0.61000  0.99940  0.13910  Biso   1.000  C 
  H3       1.0000 0.59190  0.98020  0.10720  Biso   1.000  H 
  C11      1.0000 0.53880  0.08620  0.16510  Biso   1.000  C 
  C12      1.0000 0.56520  0.11430  0.21180  Biso   1.000  C 
  H4       1.0000 0.51660  0.17350  0.22960  Biso   1.000  H 
  C13      1.0000 0.66290  0.05560  0.23260  Biso   1.000  C 
  H5       1.0000 0.68100  0.07490  0.26450  Biso   1.000  H 
  C14      1.0000 0.43340  0.14660  0.14140  Biso   1.000  C 
  Cd2      1.0000 0.27160  0.25980  0.10360  Biso   1.000  Cd
  O1       1.0000 0.36100  0.30030  0.02710  Biso   1.000  O 
  C15      1.0000 0.30140  0.30800  0.99040  Biso   1.000  C 
  C16      1.0000 0.30610  0.34230  0.92920  Biso   1.000  C 
  C17      1.0000 0.24220  0.33070  0.89340  Biso   1.000  C 
  H6       1.0000 0.18560  0.31060  0.90810  Biso   1.000  H 
  C18      1.0000 0.26100  0.34840  0.83610  Biso   1.000  C 
  H7       1.0000 0.21740  0.34050  0.81160  Biso   1.000  H 
  C19      1.0000 0.34380  0.37780  0.81460  Biso   1.000  C 
  Si2      1.0000 0.36915  0.39464  0.73624  Biso   1.000  Si
  C20      1.0000 0.44390  0.26100  0.71150  Biso   1.000  C 
  C21      1.0000 0.46950  0.18130  0.75230  Biso   1.000  C 
  C22      1.0000 0.52930  0.08230  0.73730  Biso   1.000  C 
  H8       1.0000 0.54680  0.02790  0.76520  Biso   1.000  H 
  C23      1.0000 0.56350  0.06280  0.68140  Biso   1.000  C 
  C24      1.0000 0.53780  0.14250  0.64060  Biso   1.000  C 
  H9       1.0000 0.56110  0.12930  0.60250  Biso   1.000  H 
  C25      1.0000 0.47810  0.24150  0.65560  Biso   1.000  C 
  H10      1.0000 0.46060  0.29590  0.62770  Biso   1.000  H 
  C26      1.0000 0.62670  0.95520  0.66520  Biso   1.000  C 
  O2       1.0000 0.62900  0.88170  0.69270  Biso   1.000  O 
  O3       1.0000 0.65190  0.93440  0.61810  Biso   1.000  O 
  Cd3      1.0000 0.75074  0.74967  0.74979  Biso   1.000  Cd
  O4       1.0000 0.85150  0.59610  0.78960  Biso   1.000  O 
  C27      1.0000 0.87760  0.54240  0.82960  Biso   1.000  C 
  C28      1.0000 0.95030  0.43440  0.81720  Biso   1.000  C 
  C29      1.0000 0.98380  0.41330  0.76150  Biso   1.000  C 
  H11      1.0000 0.96740  0.46700  0.73320  Biso   1.000  H 
  C30      1.0000 0.04120  0.31350  0.74730  Biso   1.000  C 
  C31      1.0000 0.06520  0.23480  0.78870  Biso   1.000  C 
  C32      1.0000 0.03190  0.25570  0.84440  Biso   1.000  C 
  H12      1.0000 0.04820  0.20200  0.87270  Biso   1.000  H 
  C33      1.0000 0.97440  0.35550  0.85850  Biso   1.000  C 
  H13      1.0000 0.95160  0.36990  0.89660  Biso   1.000  H 
  Si3      1.0000 0.12890  0.10540  0.76470  Biso   1.000  Si
  C34      1.0000 0.16970  0.10790  0.68570  Biso   1.000  C 
  C35      1.0000 0.25450  0.13270  0.66190  Biso   1.000  C 
  C36      1.0000 0.26890  0.15570  0.60480  Biso   1.000  C 
  H14      1.0000 0.32750  0.17240  0.58980  Biso   1.000  H 
  C37      1.0000 0.19830  0.15440  0.56960  Biso   1.000  C 
  C38      1.0000 0.11370  0.12950  0.59370  Biso   1.000  C 
  H15      1.0000 0.06450  0.12820  0.57040  Biso   1.000  H 
  C39      1.0000 0.09880  0.10650  0.65070  Biso   1.000  C 
  H16      1.0000 0.04020  0.08980  0.66570  Biso   1.000  H 
  C40      1.0000 0.21540  0.17910  0.50770  Biso   1.000  C 
  Cd4      1.0000 0.25255  0.22626  0.39938  Biso   1.000  Cd
  O5       1.0000 0.15780  0.16250  0.47750  Biso   1.000  O 
  O6       1.0000 0.28440  0.20930  0.49040  Biso   1.000  O 
  O7       1.0000 0.34980  0.31630  0.37080  Biso   1.000  O 
  C41      1.0000 0.35980  0.34960  0.32240  Biso   1.000  C 
  C42      1.0000 0.42480  0.41300  0.31130  Biso   1.000  C 
  C43      1.0000 0.38840  0.49980  0.27550  Biso   1.000  C 
  H17      1.0000 0.32240  0.51950  0.26020  Biso   1.000  H 
  C44      1.0000 0.44860  0.55770  0.26210  Biso   1.000  C 
  H18      1.0000 0.42360  0.61700  0.23770  Biso   1.000  H 
  C45      1.0000 0.54520  0.52880  0.28440  Biso   1.000  C 
  C46      1.0000 0.58170  0.44190  0.32020  Biso   1.000  C 
  H19      1.0000 0.64770  0.42220  0.33550  Biso   1.000  H 
  C47      1.0000 0.52140  0.38410  0.33360  Biso   1.000  C 
  H20      1.0000 0.54640  0.32480  0.35800  Biso   1.000  H 
  Si4      1.0000 0.63085  0.60536  0.26376  Biso   1.000  Si
  C48      1.0000 0.65620  0.62220  0.18540  Biso   1.000  C 
  C49      1.0000 0.73900  0.65160  0.16390  Biso   1.000  C 
  C50      1.0000 0.75780  0.66930  0.10660  Biso   1.000  C 
  H21      1.0000 0.81440  0.68940  0.09190  Biso   1.000  H 
  C51      1.0000 0.69390  0.65770  0.07080  Biso   1.000  C 
  C52      1.0000 0.61120  0.62840  0.09230  Biso   1.000  C 
  H22      1.0000 0.56750  0.62040  0.06780  Biso   1.000  H 
  C53      1.0000 0.59230  0.61060  0.14960  Biso   1.000  C 
  H23      1.0000 0.53570  0.59050  0.16430  Biso   1.000  H 
  C54      1.0000 0.69860  0.69200  0.00960  Biso   1.000  C 
  Cd5      1.0000 0.72840  0.74020  0.89640  Biso   1.000  Cd
  O8       1.0000 0.89790  0.56620  0.87780  Biso   1.000  O 
  O9       1.0000 0.63100  0.76860  0.83110  Biso   1.000  O 
  C55      1.0000 0.56660  0.85340  0.85860  Biso   1.000  C 
  C56      1.0000 0.46120  0.91380  0.83490  Biso   1.000  C 
  C57      1.0000 0.43480  0.88570  0.78820  Biso   1.000  C 
  C58      1.0000 0.33710  0.94440  0.76740  Biso   1.000  C 
  H24      1.0000 0.31900  0.92510  0.73550  Biso   1.000  H 
  C59      1.0000 0.26580  0.03110  0.79340  Biso   1.000  C 
  C60      1.0000 0.29230  0.05920  0.84010  Biso   1.000  C 
  H25      1.0000 0.24360  0.11850  0.85790  Biso   1.000  H 
  C61      1.0000 0.39000  0.00060  0.86090  Biso   1.000  C 
  H26      1.0000 0.40810  0.01980  0.89280  Biso   1.000  H 
  H27      1.0000 0.48340  0.82650  0.77040  Biso   1.000  H 
  O10      1.0000 0.58940  0.87170  0.89990  Biso   1.000  O 
  O11      1.0000 0.63900  0.69970  0.97290  Biso   1.000  O 
  O12      1.0000 0.84440  0.81920  0.87110  Biso   1.000  O 
  C62      1.0000 0.89760  0.82310  0.83000  Biso   1.000  C 
  C63      1.0000 0.96080  0.88760  0.81460  Biso   1.000  C 
  C64      1.0000 0.94160  0.96780  0.84670  Biso   1.000  C 
  H28      1.0000 0.88890  0.98160  0.87810  Biso   1.000  H 
  C65      1.0000 0.99930  0.02790  0.83300  Biso   1.000  C 
  H29      1.0000 0.98610  0.08270  0.85500  Biso   1.000  H 
  C66      1.0000 0.07640  0.00770  0.78710  Biso   1.000  C 
  C67      1.0000 0.09570  0.92750  0.75500  Biso   1.000  C 
  H30      1.0000 0.14830  0.91370  0.72360  Biso   1.000  H 
  C68      1.0000 0.03790  0.86740  0.76870  Biso   1.000  C 
  H31      1.0000 0.05110  0.81260  0.74670  Biso   1.000  H 
  O13      1.0000 0.88290  0.78470  0.78690  Biso   1.000  O 
  O14      1.0000 0.78280  0.71980  0.99040  Biso   1.000  O 
  H32      1.0000 0.78260  0.65950  0.18840  Biso   1.000  H 
  C69      1.0000 0.76390  0.53280  0.29340  Biso   1.000  C 
  C70      1.0000 0.83380  0.44590  0.26720  Biso   1.000  C 
  H33      1.0000 0.81470  0.42730  0.23540  Biso   1.000  H 
  C71      1.0000 0.93160  0.38610  0.28750  Biso   1.000  C 
  H34      1.0000 0.97940  0.32670  0.26960  Biso   1.000  H 
  C72      1.0000 0.95950  0.41320  0.33410  Biso   1.000  C 
  C73      1.0000 0.88960  0.50020  0.36030  Biso   1.000  C 
  C74      1.0000 0.79180  0.56000  0.34000  Biso   1.000  C 
  H35      1.0000 0.74410  0.61940  0.35790  Biso   1.000  H 
  H36      1.0000 0.90870  0.51870  0.39220  Biso   1.000  H 
  C75      1.0000 0.06630  0.34810  0.35530  Biso   1.000  C 
  O15      1.0000 0.13160  0.27350  0.33010  Biso   1.000  O 
  Cd6      1.0000 0.24926  0.25033  0.25021  Biso   1.000  Cd
  O16      1.0000 0.36900  0.23140  0.16890  Biso   1.000  O 
  O17      1.0000 0.11710  0.21530  0.21310  Biso   1.000  O 
  C76      1.0000 0.10240  0.17690  0.17000  Biso   1.000  C 
  C77      1.0000 0.03920  0.11240  0.18540  Biso   1.000  C 
  C78      1.0000 0.05840  0.03220  0.15330  Biso   1.000  C 
  H37      1.0000 0.11110  0.01840  0.12190  Biso   1.000  H 
  C79      1.0000 0.00070  0.97210  0.16700  Biso   1.000  C 
  H38      1.0000 0.01390  0.91730  0.14500  Biso   1.000  H 
  C80      1.0000 0.92360  0.99230  0.21290  Biso   1.000  C 
  C81      1.0000 0.90430  0.07250  0.24500  Biso   1.000  C 
  H39      1.0000 0.85170  0.08630  0.27640  Biso   1.000  H 
  C82      1.0000 0.96210  0.13260  0.23130  Biso   1.000  C 
  H40      1.0000 0.94890  0.18740  0.25330  Biso   1.000  H 
  O18      1.0000 0.15560  0.18080  0.12890  Biso   1.000  O 
  O19      1.0000 0.37100  0.11830  0.30730  Biso   1.000  O 
  C83      1.0000 0.37330  0.04480  0.33480  Biso   1.000  C 
  O20      1.0000 0.34810  0.06560  0.38190  Biso   1.000  O 
  C84      1.0000 0.43650  0.93720  0.31860  Biso   1.000  C 
  C85      1.0000 0.47070  0.91770  0.26270  Biso   1.000  C 
  H41      1.0000 0.45320  0.97210  0.23480  Biso   1.000  H 
  C86      1.0000 0.53050  0.81870  0.24770  Biso   1.000  C 
  H42      1.0000 0.55380  0.80550  0.20950  Biso   1.000  H 
  C87      1.0000 0.55610  0.73900  0.28850  Biso   1.000  C 
  C88      1.0000 0.52190  0.75850  0.34440  Biso   1.000  C 
  H43      1.0000 0.53940  0.70410  0.37230  Biso   1.000  H 
  C89      1.0000 0.46220  0.85750  0.35940  Biso   1.000  C 
  H44      1.0000 0.43890  0.87070  0.39750  Biso   1.000  H 
  O21      1.0000 0.32080  0.33720  0.28400  Biso   1.000  O 
  O22      1.0000 0.14850  0.40390  0.21040  Biso   1.000  O 
  C90      1.0000 0.12240  0.45760  0.17040  Biso   1.000  C 
  C91      1.0000 0.04970  0.56560  0.18280  Biso   1.000  C 
  C92      1.0000 0.02560  0.64450  0.14150  Biso   1.000  C 
  H45      1.0000 0.04840  0.63010  0.10340  Biso   1.000  H 
  C93      1.0000 0.96810  0.74430  0.15560  Biso   1.000  C 
  H46      1.0000 0.95180  0.79800  0.12730  Biso   1.000  H 
  C94      1.0000 0.93480  0.76520  0.21130  Biso   1.000  C 
  C95      1.0000 0.95880  0.68650  0.25270  Biso   1.000  C 
  H47      1.0000 0.93600  0.70080  0.29080  Biso   1.000  H 
  C96      1.0000 0.01620  0.58670  0.23850  Biso   1.000  C 
  H48      1.0000 0.03260  0.53300  0.26680  Biso   1.000  H 
  O23      1.0000 0.10210  0.43380  0.12220  Biso   1.000  O 
  O24      1.0000 0.08620  0.37150  0.40040  Biso   1.000  O 
  H49      1.0000 0.30380  0.13410  0.68520  Biso   1.000  H 
  H50      1.0000 0.06400  0.29920  0.70920  Biso   1.000  H 
  O25      1.0000 0.86840  0.72650  0.66990  Biso   1.000  O 
  C97      1.0000 0.93370  0.65190  0.64470  Biso   1.000  C 
  C98      1.0000 0.04050  0.58680  0.66590  Biso   1.000  C 
  C99      1.0000 0.06840  0.61390  0.71250  Biso   1.000  C 
  H51      1.0000 0.02060  0.67330  0.73040  Biso   1.000  H 
  C100     1.0000 0.16620  0.55410  0.73280  Biso   1.000  C 
  H52      1.0000 0.18530  0.57270  0.76460  Biso   1.000  H 
  C101     1.0000 0.23610  0.46720  0.70660  Biso   1.000  C 
  C102     1.0000 0.20820  0.44000  0.66000  Biso   1.000  C 
  H53      1.0000 0.25590  0.38060  0.64210  Biso   1.000  H 
  C103     1.0000 0.11040  0.49980  0.63970  Biso   1.000  C 
  H54      1.0000 0.09130  0.48130  0.60780  Biso   1.000  H 
  O26      1.0000 0.91380  0.62850  0.59960  Biso   1.000  O 
  O27      1.0000 0.67920  0.66280  0.71600  Biso   1.000  O 
  C104     1.0000 0.64020  0.65040  0.67760  Biso   1.000  C 
  C105     1.0000 0.57520  0.58700  0.68870  Biso   1.000  C 
  C106     1.0000 0.47860  0.61590  0.66640  Biso   1.000  C 
  C107     1.0000 0.41830  0.55810  0.67980  Biso   1.000  C 
  H55      1.0000 0.35230  0.57780  0.66450  Biso   1.000  H 
  C108     1.0000 0.45480  0.47120  0.71560  Biso   1.000  C 
  C109     1.0000 0.55140  0.44230  0.73790  Biso   1.000  C 
  H56      1.0000 0.57640  0.38300  0.76230  Biso   1.000  H 
  C110     1.0000 0.61160  0.50020  0.72450  Biso   1.000  C 
  H57      1.0000 0.67760  0.48050  0.73980  Biso   1.000  H 
  H58      1.0000 0.45360  0.67520  0.64200  Biso   1.000  H 
  O28      1.0000 0.65020  0.68370  0.62920  Biso   1.000  O 
  H59      1.0000 0.44620  0.19450  0.79050  Biso   1.000  H 
  C111     1.0000 0.40770  0.38940  0.85040  Biso   1.000  C 
  H60      1.0000 0.46430  0.40950  0.83570  Biso   1.000  H 
  C112     1.0000 0.38880  0.37160  0.90770  Biso   1.000  C 
  H61      1.0000 0.43250  0.37960  0.93220  Biso   1.000  H 
  O29      1.0000 0.21720  0.28020  0.00960  Biso   1.000  O 
  O30      1.0000 0.41060  0.12830  0.10010  Biso   1.000  O 
  H62      1.0000 0.75640  0.88150  0.14210  Biso   1.000  H 
  H63      1.0000 0.95980  0.91020  0.33430  Biso   1.000  H 
  H64      1.0000 0.93550  0.87180  0.42960  Biso   1.000  H 
  O31      1.0000 0.71560  0.79070  0.50960  Biso   1.000  O 
  O32      1.0000 0.84220  0.83750  0.52250  Biso   1.000  O 
