data_image0
_cell_length_a       13.875
_cell_length_b       14.072
_cell_length_c       14.208
_cell_angle_alpha    116.3
_cell_angle_beta     109.724
_cell_angle_gamma    101.428

_symmetry_space_group_name_H-M    "P 1"
_symmetry_int_tables_number       1

loop_
  _symmetry_equiv_pos_as_xyz
  'x, y, z'

loop_
  _atom_site_label
  _atom_site_occupancy
  _atom_site_fract_x
  _atom_site_fract_y
  _atom_site_fract_z
  _atom_site_thermal_displace_type
  _atom_site_B_iso_or_equiv
  _atom_site_type_symbol
  Cd1      1.0000 0.00000  0.00000  0.00000  Biso   1.000  Cd
  O1       1.0000 0.16650  0.10310  0.18200  Biso   1.000  O 
  C1       1.0000 0.20900  0.21150  0.26570  Biso   1.000  C 
  Cd2      1.0000 0.29469  0.12624  0.11388  Biso   1.000  Cd
  O2       1.0000 0.28320  0.28710  0.27510  Biso   1.000  O 
  O3       1.0000 0.48750  0.22040  0.19030  Biso   1.000  O 
  C2       1.0000 0.51040  0.20280  0.27350  Biso   1.000  C 
  C3       1.0000 0.63170  0.23890  0.35690  Biso   1.000  C 
  C4       1.0000 0.66120  0.24520  0.46310  Biso   1.000  C 
  H1       1.0000 0.60580  0.23040  0.48570  Biso   1.000  H 
  C5       1.0000 0.77310  0.27360  0.53740  Biso   1.000  C 
  H2       1.0000 0.79250  0.27890  0.61090  Biso   1.000  H 
  C6       1.0000 0.85690  0.29450  0.50730  Biso   1.000  C 
  C7       1.0000 0.82440  0.28810  0.40000  Biso   1.000  C 
  H3       1.0000 0.87920  0.30190  0.37620  Biso   1.000  H 
  C8       1.0000 0.71350  0.26200  0.32640  Biso   1.000  C 
  H4       1.0000 0.69430  0.26010  0.25460  Biso   1.000  H 
  Si1      1.0000 0.01012  0.34604  0.61091  Biso   1.000  Si
  C9       1.0000 0.08020  0.31010  0.51550  Biso   1.000  C 
  C10      1.0000 0.04650  0.19210  0.42810  Biso   1.000  C 
  C11      1.0000 0.08870  0.16070  0.34880  Biso   1.000  C 
  H5       1.0000 0.06420  0.08080  0.28990  Biso   1.000  H 
  C12      1.0000 0.16610  0.24470  0.35450  Biso   1.000  C 
  C13      1.0000 0.20240  0.36210  0.44200  Biso   1.000  C 
  H6       1.0000 0.25660  0.42040  0.44740  Biso   1.000  H 
  C14      1.0000 0.15920  0.39370  0.52100  Biso   1.000  C 
  H7       1.0000 0.18410  0.47370  0.57980  Biso   1.000  H 
  H8       1.0000 0.99410  0.13330  0.42370  Biso   1.000  H 
  C15      1.0000 0.03860  0.27850  0.69940  Biso   1.000  C 
  C16      1.0000 0.12940  0.25080  0.72240  Biso   1.000  C 
  H9       1.0000 0.17310  0.25790  0.68480  Biso   1.000  H 
  C17      1.0000 0.16010  0.21280  0.79850  Biso   1.000  C 
  H10      1.0000 0.22450  0.19570  0.81280  Biso   1.000  H 
  C18      1.0000 0.09870  0.19960  0.85300  Biso   1.000  C 
  C19      1.0000 0.00910  0.22910  0.83450  Biso   1.000  C 
  C20      1.0000 0.98140  0.27110  0.76160  Biso   1.000  C 
  H11      1.0000 0.92160  0.29550  0.75390  Biso   1.000  H 
  H12      1.0000 0.96550  0.22080  0.87160  Biso   1.000  H 
  C21      1.0000 0.13390  0.16530  0.94130  Biso   1.000  C 
  O4       1.0000 0.23230  0.17060  0.98080  Biso   1.000  O 
  O5       1.0000 0.06250  0.13690  0.97060  Biso   1.000  O 
  C22      1.0000 0.06520  0.50740  0.71880  Biso   1.000  C 
  C23      1.0000 0.17910  0.57790  0.80370  Biso   1.000  C 
  H13      1.0000 0.23100  0.54310  0.81030  Biso   1.000  H 
  C24      1.0000 0.21730  0.69780  0.87860  Biso   1.000  C 
  H14      1.0000 0.29490  0.74410  0.93470  Biso   1.000  H 
  C25      1.0000 0.14240  0.75040  0.87160  Biso   1.000  C 
  C26      1.0000 0.02950  0.68160  0.79130  Biso   1.000  C 
  C27      1.0000 0.99150  0.56170  0.71500  Biso   1.000  C 
  H15      1.0000 0.91370  0.51600  0.65920  Biso   1.000  H 
  H16      1.0000 0.97730  0.71630  0.78800  Biso   1.000  H 
  C28      1.0000 0.18050  0.88060  0.94460  Biso   1.000  C 
  O6       1.0000 0.28370  0.94350  0.01180  Biso   1.000  O 
  O7       1.0000 0.10700  0.91990  0.93260  Biso   1.000  O 
  O8       1.0000 0.43690  0.15470  0.28900  Biso   1.000  O 
  O9       1.0000 0.83350  0.89690  0.81800  Biso   1.000  O 
  C29      1.0000 0.79100  0.78850  0.73430  Biso   1.000  C 
  Cd3      1.0000 0.70531  0.87376  0.88612  Biso   1.000  Cd
  C30      1.0000 0.48960  0.79720  0.72650  Biso   1.000  C 
  C31      1.0000 0.36830  0.76110  0.64310  Biso   1.000  C 
  C32      1.0000 0.33880  0.75480  0.53690  Biso   1.000  C 
  H17      1.0000 0.39420  0.76960  0.51430  Biso   1.000  H 
  C33      1.0000 0.22690  0.72640  0.46260  Biso   1.000  C 
  H18      1.0000 0.20750  0.72110  0.38910  Biso   1.000  H 
  C34      1.0000 0.14310  0.70550  0.49270  Biso   1.000  C 
  C35      1.0000 0.17560  0.71190  0.60000  Biso   1.000  C 
  H19      1.0000 0.12080  0.69810  0.62380  Biso   1.000  H 
  C36      1.0000 0.28650  0.73800  0.67360  Biso   1.000  C 
  H20      1.0000 0.30570  0.73990  0.74540  Biso   1.000  H 
  Si2      1.0000 0.98988  0.65396  0.38909  Biso   1.000  Si
  C37      1.0000 0.93480  0.49260  0.28120  Biso   1.000  C 
  C38      1.0000 0.00850  0.43830  0.28500  Biso   1.000  C 
  H21      1.0000 0.08630  0.48400  0.34080  Biso   1.000  H 
  C39      1.0000 0.97050  0.31840  0.20870  Biso   1.000  C 
  H22      1.0000 0.02270  0.28370  0.21200  Biso   1.000  H 
  C40      1.0000 0.85760  0.24960  0.12840  Biso   1.000  C 
  C41      1.0000 0.81950  0.11940  0.05540  Biso   1.000  C 
  O10      1.0000 0.71630  0.05650  0.98820  Biso   1.000  O 
  O11      1.0000 0.89300  0.08010  0.06740  Biso   1.000  O 
  C42      1.0000 0.78270  0.30220  0.12140  Biso   1.000  C 
  H23      1.0000 0.70510  0.25590  0.06530  Biso   1.000  H 
  C43      1.0000 0.82090  0.42210  0.19630  Biso   1.000  C 
  H24      1.0000 0.76900  0.45690  0.18970  Biso   1.000  H 
  C44      1.0000 0.91980  0.68990  0.48450  Biso   1.000  C 
  C45      1.0000 0.84080  0.60630  0.47900  Biso   1.000  C 
  H25      1.0000 0.81590  0.52630  0.42020  Biso   1.000  H 
  C46      1.0000 0.79760  0.63790  0.55800  Biso   1.000  C 
  H26      1.0000 0.74340  0.57960  0.55260  Biso   1.000  H 
  C47      1.0000 0.83390  0.75530  0.64550  Biso   1.000  C 
  C48      1.0000 0.91130  0.83930  0.65120  Biso   1.000  C 
  H27      1.0000 0.93580  0.91920  0.71010  Biso   1.000  H 
  C49      1.0000 0.95350  0.80790  0.57190  Biso   1.000  C 
  H28      1.0000 0.00590  0.86670  0.57630  Biso   1.000  H 
  C50      1.0000 0.96140  0.72150  0.30060  Biso   1.000  C 
  C51      1.0000 0.87060  0.74920  0.27760  Biso   1.000  C 
  H29      1.0000 0.82690  0.74210  0.31520  Biso   1.000  H 
  C52      1.0000 0.83990  0.78720  0.20150  Biso   1.000  C 
  H30      1.0000 0.77550  0.80430  0.18720  Biso   1.000  H 
  C53      1.0000 0.90130  0.80040  0.14700  Biso   1.000  C 
  C54      1.0000 0.99090  0.77090  0.16550  Biso   1.000  C 
  H31      1.0000 0.03450  0.77920  0.12840  Biso   1.000  H 
  C55      1.0000 0.01860  0.72890  0.23840  Biso   1.000  C 
  H32      1.0000 0.07840  0.70450  0.24610  Biso   1.000  H 
  C56      1.0000 0.86610  0.83470  0.05870  Biso   1.000  C 
  O12      1.0000 0.76770  0.82940  0.01920  Biso   1.000  O 
  O13      1.0000 0.93750  0.86310  0.02940  Biso   1.000  O 
  O14      1.0000 0.56310  0.84530  0.71100  Biso   1.000  O 
  O15      1.0000 0.51250  0.77960  0.80970  Biso   1.000  O 
  O16      1.0000 0.71680  0.71290  0.72490  Biso   1.000  O 
