data_image0
_cell_length_a       17.0544
_cell_length_b       17.0544
_cell_length_c       17.0544
_cell_angle_alpha    90
_cell_angle_beta     90
_cell_angle_gamma    90

_symmetry_space_group_name_H-M    "P 1"
_symmetry_int_tables_number       1

loop_
  _symmetry_equiv_pos_as_xyz
  'x, y, z'

loop_
  _atom_site_label
  _atom_site_occupancy
  _atom_site_fract_x
  _atom_site_fract_y
  _atom_site_fract_z
  _atom_site_thermal_displace_type
  _atom_site_B_iso_or_equiv
  _atom_site_type_symbol
  Zn1      1.0000 0.00000  0.50000  0.75000  Biso   1.000  Zn
  N1       1.0000 0.09040  0.47085  0.81715  Biso   1.000  N 
  C1       1.0000 0.13370  0.40200  0.81140  Biso   1.000  C 
  H1       1.0000 0.12540  0.36240  0.77490  Biso   1.000  H 
  C2       1.0000 0.18860  0.40200  0.86630  Biso   1.000  C 
  H2       1.0000 0.22510  0.36240  0.87460  Biso   1.000  H 
  N2       1.0000 0.18285  0.47085  0.90960  Biso   1.000  N 
  C3       1.0000 0.12253  0.50720  0.87747  Biso   1.000  C 
  C4       1.0000 0.09280  0.58540  0.90720  Biso   1.000  C 
  H3       1.0000 0.10130  0.58900  0.96260  Biso   1.000  H 
  H4       1.0000 0.03740  0.58900  0.89870  Biso   1.000  H 
  H5       1.0000 0.11920  0.62750  0.88080  Biso   1.000  H 
  Zn2      1.0000 0.25000  0.50000  0.00000  Biso   1.000  Zn
  N3       1.0000 0.31715  0.40960  0.02915  Biso   1.000  N 
  C5       1.0000 0.31140  0.36630  0.09800  Biso   1.000  C 
  C6       1.0000 0.36630  0.31140  0.09800  Biso   1.000  C 
  H6       1.0000 0.37460  0.27490  0.13760  Biso   1.000  H 
  N4       1.0000 0.40960  0.31715  0.02915  Biso   1.000  N 
  Zn3      1.0000 0.50000  0.25000  0.00000  Biso   1.000  Zn
  N5       1.0000 0.52915  0.18285  0.09040  Biso   1.000  N 
  C7       1.0000 0.49280  0.12253  0.12253  Biso   1.000  C 
  C8       1.0000 0.41460  0.09280  0.09280  Biso   1.000  C 
  H7       1.0000 0.41100  0.03740  0.10130  Biso   1.000  H 
  H8       1.0000 0.41100  0.10130  0.03740  Biso   1.000  H 
  H9       1.0000 0.37250  0.11920  0.11920  Biso   1.000  H 
  N6       1.0000 0.52915  0.09040  0.18285  Biso   1.000  N 
  C9       1.0000 0.59800  0.13370  0.18860  Biso   1.000  C 
  C10      1.0000 0.59800  0.18860  0.13370  Biso   1.000  C 
  H10      1.0000 0.63760  0.22510  0.12540  Biso   1.000  H 
  H11      1.0000 0.63760  0.12540  0.22510  Biso   1.000  H 
  Zn4      1.0000 0.50000  0.00000  0.25000  Biso   1.000  Zn
  N7       1.0000 0.40960  0.02915  0.31715  Biso   1.000  N 
  C11      1.0000 0.36630  0.09800  0.31140  Biso   1.000  C 
  C12      1.0000 0.31140  0.09800  0.36630  Biso   1.000  C 
  H12      1.0000 0.27490  0.13760  0.37460  Biso   1.000  H 
  N8       1.0000 0.31715  0.02915  0.40960  Biso   1.000  N 
  Zn5      1.0000 0.25000  0.00000  0.50000  Biso   1.000  Zn
  N9       1.0000 0.18285  0.09040  0.52915  Biso   1.000  N 
  C13      1.0000 0.12253  0.12253  0.49280  Biso   1.000  C 
  C14      1.0000 0.09280  0.09280  0.41460  Biso   1.000  C 
  H13      1.0000 0.10130  0.03740  0.41100  Biso   1.000  H 
  H14      1.0000 0.03740  0.10130  0.41100  Biso   1.000  H 
  H15      1.0000 0.11920  0.11920  0.37250  Biso   1.000  H 
  N10      1.0000 0.09040  0.18285  0.52915  Biso   1.000  N 
  C15      1.0000 0.13370  0.18860  0.59800  Biso   1.000  C 
  H16      1.0000 0.12540  0.22510  0.63760  Biso   1.000  H 
  C16      1.0000 0.18860  0.13370  0.59800  Biso   1.000  C 
  H17      1.0000 0.22510  0.12540  0.63760  Biso   1.000  H 
  Zn6      1.0000 0.00000  0.25000  0.50000  Biso   1.000  Zn
  N11      1.0000 0.02915  0.31715  0.40960  Biso   1.000  N 
  C17      1.0000 0.09800  0.31140  0.36630  Biso   1.000  C 
  H18      1.0000 0.13760  0.27490  0.37460  Biso   1.000  H 
  C18      1.0000 0.09800  0.36630  0.31140  Biso   1.000  C 
  H19      1.0000 0.13760  0.37460  0.27490  Biso   1.000  H 
  N12      1.0000 0.02915  0.40960  0.31715  Biso   1.000  N 
  Zn7      1.0000 0.00000  0.50000  0.25000  Biso   1.000  Zn
  N13      1.0000 0.09040  0.52915  0.18285  Biso   1.000  N 
  C19      1.0000 0.12253  0.49280  0.12253  Biso   1.000  C 
  C20      1.0000 0.09280  0.41460  0.09280  Biso   1.000  C 
  H20      1.0000 0.11920  0.37250  0.11920  Biso   1.000  H 
  H21      1.0000 0.10130  0.41100  0.03740  Biso   1.000  H 
  H22      1.0000 0.03740  0.41100  0.10130  Biso   1.000  H 
  N14      1.0000 0.18285  0.52915  0.09040  Biso   1.000  N 
  C21      1.0000 0.18860  0.59800  0.13370  Biso   1.000  C 
  H23      1.0000 0.22510  0.63760  0.12540  Biso   1.000  H 
  C22      1.0000 0.13370  0.59800  0.18860  Biso   1.000  C 
  H24      1.0000 0.12540  0.63760  0.22510  Biso   1.000  H 
  N15      1.0000 0.90960  0.47085  0.18285  Biso   1.000  N 
  C23      1.0000 0.86630  0.40200  0.18860  Biso   1.000  C 
  C24      1.0000 0.81140  0.40200  0.13370  Biso   1.000  C 
  H25      1.0000 0.77490  0.36240  0.12540  Biso   1.000  H 
  N16      1.0000 0.81715  0.47085  0.09040  Biso   1.000  N 
  C25      1.0000 0.87747  0.50720  0.12253  Biso   1.000  C 
  C26      1.0000 0.90720  0.58540  0.09280  Biso   1.000  C 
  H26      1.0000 0.89870  0.58900  0.03740  Biso   1.000  H 
  H27      1.0000 0.96260  0.58900  0.10130  Biso   1.000  H 
  H28      1.0000 0.88080  0.62750  0.11920  Biso   1.000  H 
  Zn8      1.0000 0.75000  0.50000  0.00000  Biso   1.000  Zn
  N17      1.0000 0.68285  0.59040  0.02915  Biso   1.000  N 
  C27      1.0000 0.68860  0.63370  0.09800  Biso   1.000  C 
  C28      1.0000 0.63370  0.68860  0.09800  Biso   1.000  C 
  H29      1.0000 0.62540  0.72510  0.13760  Biso   1.000  H 
  N18      1.0000 0.59040  0.68285  0.02915  Biso   1.000  N 
  Zn9      1.0000 0.50000  0.75000  0.00000  Biso   1.000  Zn
  N19      1.0000 0.47085  0.81715  0.09040  Biso   1.000  N 
  C29      1.0000 0.40200  0.81140  0.13370  Biso   1.000  C 
  H30      1.0000 0.36240  0.77490  0.12540  Biso   1.000  H 
  C30      1.0000 0.40200  0.86630  0.18860  Biso   1.000  C 
  H31      1.0000 0.36240  0.87460  0.22510  Biso   1.000  H 
  N20      1.0000 0.47085  0.90960  0.18285  Biso   1.000  N 
  C31      1.0000 0.50720  0.87747  0.12253  Biso   1.000  C 
  C32      1.0000 0.58540  0.90720  0.09280  Biso   1.000  C 
  H32      1.0000 0.62750  0.88080  0.11920  Biso   1.000  H 
  H33      1.0000 0.58900  0.89870  0.03740  Biso   1.000  H 
  H34      1.0000 0.58900  0.96260  0.10130  Biso   1.000  H 
  N21      1.0000 0.52915  0.81715  0.90960  Biso   1.000  N 
  C33      1.0000 0.49280  0.87747  0.87747  Biso   1.000  C 
  C34      1.0000 0.41460  0.90720  0.90720  Biso   1.000  C 
  H35      1.0000 0.37250  0.88080  0.88080  Biso   1.000  H 
  H36      1.0000 0.41100  0.96260  0.89870  Biso   1.000  H 
  H37      1.0000 0.41100  0.89870  0.96260  Biso   1.000  H 
  N22      1.0000 0.52915  0.90960  0.81715  Biso   1.000  N 
  C35      1.0000 0.59800  0.86630  0.81140  Biso   1.000  C 
  H38      1.0000 0.63760  0.87460  0.77490  Biso   1.000  H 
  C36      1.0000 0.59800  0.81140  0.86630  Biso   1.000  C 
  H39      1.0000 0.63760  0.77490  0.87460  Biso   1.000  H 
  Zn10     1.0000 0.50000  0.00000  0.75000  Biso   1.000  Zn
  N23      1.0000 0.47085  0.09040  0.81715  Biso   1.000  N 
  C37      1.0000 0.40200  0.13370  0.81140  Biso   1.000  C 
  H40      1.0000 0.36240  0.12540  0.77490  Biso   1.000  H 
  C38      1.0000 0.40200  0.18860  0.86630  Biso   1.000  C 
  H41      1.0000 0.36240  0.22510  0.87460  Biso   1.000  H 
  N24      1.0000 0.47085  0.18285  0.90960  Biso   1.000  N 
  C39      1.0000 0.50720  0.12253  0.87747  Biso   1.000  C 
  C40      1.0000 0.58540  0.09280  0.90720  Biso   1.000  C 
  H42      1.0000 0.58900  0.03740  0.89870  Biso   1.000  H 
  H43      1.0000 0.58900  0.10130  0.96260  Biso   1.000  H 
  H44      1.0000 0.62750  0.11920  0.88080  Biso   1.000  H 
  N25      1.0000 0.59040  0.02915  0.68285  Biso   1.000  N 
  C41      1.0000 0.63370  0.09800  0.68860  Biso   1.000  C 
  C42      1.0000 0.68860  0.09800  0.63370  Biso   1.000  C 
  H45      1.0000 0.72510  0.13760  0.62540  Biso   1.000  H 
  N26      1.0000 0.68285  0.02915  0.59040  Biso   1.000  N 
  Zn11     1.0000 0.75000  0.00000  0.50000  Biso   1.000  Zn
  N27      1.0000 0.81715  0.09040  0.47085  Biso   1.000  N 
  C43      1.0000 0.81140  0.13370  0.40200  Biso   1.000  C 
  H46      1.0000 0.77490  0.12540  0.36240  Biso   1.000  H 
  C44      1.0000 0.86630  0.18860  0.40200  Biso   1.000  C 
  H47      1.0000 0.87460  0.22510  0.36240  Biso   1.000  H 
  N28      1.0000 0.90960  0.18285  0.47085  Biso   1.000  N 
  C45      1.0000 0.87747  0.12253  0.50720  Biso   1.000  C 
  C46      1.0000 0.90720  0.09280  0.58540  Biso   1.000  C 
  H48      1.0000 0.89870  0.03740  0.58900  Biso   1.000  H 
  H49      1.0000 0.96260  0.10130  0.58900  Biso   1.000  H 
  H50      1.0000 0.88080  0.11920  0.62750  Biso   1.000  H 
  N29      1.0000 0.81715  0.90960  0.52915  Biso   1.000  N 
  C47      1.0000 0.81140  0.86630  0.59800  Biso   1.000  C 
  C48      1.0000 0.86630  0.81140  0.59800  Biso   1.000  C 
  H51      1.0000 0.87460  0.77490  0.63760  Biso   1.000  H 
  N30      1.0000 0.90960  0.81715  0.52915  Biso   1.000  N 
  C49      1.0000 0.87747  0.87747  0.49280  Biso   1.000  C 
  C50      1.0000 0.90720  0.90720  0.41460  Biso   1.000  C 
  H52      1.0000 0.88080  0.88080  0.37250  Biso   1.000  H 
  H53      1.0000 0.96260  0.89870  0.41100  Biso   1.000  H 
  H54      1.0000 0.89870  0.96260  0.41100  Biso   1.000  H 
  Zn12     1.0000 0.00000  0.75000  0.50000  Biso   1.000  Zn
  N31      1.0000 0.09040  0.81715  0.47085  Biso   1.000  N 
  C51      1.0000 0.13370  0.81140  0.40200  Biso   1.000  C 
  H55      1.0000 0.12540  0.77490  0.36240  Biso   1.000  H 
  C52      1.0000 0.18860  0.86630  0.40200  Biso   1.000  C 
  H56      1.0000 0.22510  0.87460  0.36240  Biso   1.000  H 
  N32      1.0000 0.18285  0.90960  0.47085  Biso   1.000  N 
  C53      1.0000 0.12253  0.87747  0.50720  Biso   1.000  C 
  C54      1.0000 0.09280  0.90720  0.58540  Biso   1.000  C 
  H57      1.0000 0.11920  0.88080  0.62750  Biso   1.000  H 
  H58      1.0000 0.03740  0.89870  0.58900  Biso   1.000  H 
  H59      1.0000 0.10130  0.96260  0.58900  Biso   1.000  H 
  N33      1.0000 0.02915  0.68285  0.59040  Biso   1.000  N 
  C55      1.0000 0.09800  0.68860  0.63370  Biso   1.000  C 
  H60      1.0000 0.13760  0.72510  0.62540  Biso   1.000  H 
  C56      1.0000 0.09800  0.63370  0.68860  Biso   1.000  C 
  H61      1.0000 0.13760  0.62540  0.72510  Biso   1.000  H 
  N34      1.0000 0.02915  0.59040  0.68285  Biso   1.000  N 
  C57      1.0000 0.99280  0.62253  0.62253  Biso   1.000  C 
  C58      1.0000 0.91460  0.59280  0.59280  Biso   1.000  C 
  H62      1.0000 0.87250  0.61920  0.61920  Biso   1.000  H 
  H63      1.0000 0.91100  0.60130  0.53740  Biso   1.000  H 
  H64      1.0000 0.91100  0.53740  0.60130  Biso   1.000  H 
  N35      1.0000 0.97085  0.68285  0.40960  Biso   1.000  N 
  C59      1.0000 0.90200  0.68860  0.36630  Biso   1.000  C 
  H65      1.0000 0.86240  0.72510  0.37460  Biso   1.000  H 
  C60      1.0000 0.90200  0.63370  0.31140  Biso   1.000  C 
  H66      1.0000 0.86240  0.62540  0.27490  Biso   1.000  H 
  N36      1.0000 0.97085  0.59040  0.31715  Biso   1.000  N 
  C61      1.0000 0.00720  0.62253  0.37747  Biso   1.000  C 
  C62      1.0000 0.08540  0.59280  0.40720  Biso   1.000  C 
  H67      1.0000 0.08900  0.53740  0.39870  Biso   1.000  H 
  H68      1.0000 0.12750  0.61920  0.38080  Biso   1.000  H 
  H69      1.0000 0.08900  0.60130  0.46260  Biso   1.000  H 
  H70      1.0000 0.77490  0.87460  0.63760  Biso   1.000  H 
  N37      1.0000 0.68285  0.97085  0.40960  Biso   1.000  N 
  C63      1.0000 0.68860  0.90200  0.36630  Biso   1.000  C 
  H71      1.0000 0.72510  0.86240  0.37460  Biso   1.000  H 
  C64      1.0000 0.63370  0.90200  0.31140  Biso   1.000  C 
  H72      1.0000 0.62540  0.86240  0.27490  Biso   1.000  H 
  N38      1.0000 0.59040  0.97085  0.31715  Biso   1.000  N 
  C65      1.0000 0.62253  0.00720  0.37747  Biso   1.000  C 
  C66      1.0000 0.59280  0.08540  0.40720  Biso   1.000  C 
  H73      1.0000 0.60130  0.08900  0.46260  Biso   1.000  H 
  H74      1.0000 0.53740  0.08900  0.39870  Biso   1.000  H 
  H75      1.0000 0.61920  0.12750  0.38080  Biso   1.000  H 
  C67      1.0000 0.62253  0.99280  0.62253  Biso   1.000  C 
  C68      1.0000 0.59280  0.91460  0.59280  Biso   1.000  C 
  H76      1.0000 0.60130  0.91100  0.53740  Biso   1.000  H 
  H77      1.0000 0.61920  0.87250  0.61920  Biso   1.000  H 
  H78      1.0000 0.53740  0.91100  0.60130  Biso   1.000  H 
  H79      1.0000 0.62540  0.13760  0.72510  Biso   1.000  H 
  N39      1.0000 0.40960  0.97085  0.68285  Biso   1.000  N 
  C69      1.0000 0.36630  0.90200  0.68860  Biso   1.000  C 
  H80      1.0000 0.37460  0.86240  0.72510  Biso   1.000  H 
  C70      1.0000 0.31140  0.90200  0.63370  Biso   1.000  C 
  H81      1.0000 0.27490  0.86240  0.62540  Biso   1.000  H 
  N40      1.0000 0.31715  0.97085  0.59040  Biso   1.000  N 
  C71      1.0000 0.37747  0.00720  0.62253  Biso   1.000  C 
  C72      1.0000 0.40720  0.08540  0.59280  Biso   1.000  C 
  H82      1.0000 0.39870  0.08900  0.53740  Biso   1.000  H 
  H83      1.0000 0.46260  0.08900  0.60130  Biso   1.000  H 
  H84      1.0000 0.38080  0.12750  0.61920  Biso   1.000  H 
  N41      1.0000 0.40960  0.68285  0.97085  Biso   1.000  N 
  C73      1.0000 0.36630  0.68860  0.90200  Biso   1.000  C 
  H85      1.0000 0.37460  0.72510  0.86240  Biso   1.000  H 
  C74      1.0000 0.31140  0.63370  0.90200  Biso   1.000  C 
  H86      1.0000 0.27490  0.62540  0.86240  Biso   1.000  H 
  N42      1.0000 0.31715  0.59040  0.97085  Biso   1.000  N 
  C75      1.0000 0.37747  0.62253  0.00720  Biso   1.000  C 
  C76      1.0000 0.40720  0.59280  0.08540  Biso   1.000  C 
  H87      1.0000 0.39870  0.53740  0.08900  Biso   1.000  H 
  H88      1.0000 0.46260  0.60130  0.08900  Biso   1.000  H 
  H89      1.0000 0.38080  0.61920  0.12750  Biso   1.000  H 
  C77      1.0000 0.62253  0.62253  0.99280  Biso   1.000  C 
  C78      1.0000 0.59280  0.59280  0.91460  Biso   1.000  C 
  H90      1.0000 0.53740  0.60130  0.91100  Biso   1.000  H 
  H91      1.0000 0.60130  0.53740  0.91100  Biso   1.000  H 
  H92      1.0000 0.61920  0.61920  0.87250  Biso   1.000  H 
  H93      1.0000 0.72510  0.62540  0.13760  Biso   1.000  H 
  N43      1.0000 0.81715  0.52915  0.90960  Biso   1.000  N 
  C79      1.0000 0.81140  0.59800  0.86630  Biso   1.000  C 
  H94      1.0000 0.77490  0.63760  0.87460  Biso   1.000  H 
  C80      1.0000 0.86630  0.59800  0.81140  Biso   1.000  C 
  H95      1.0000 0.87460  0.63760  0.77490  Biso   1.000  H 
  N44      1.0000 0.90960  0.52915  0.81715  Biso   1.000  N 
  C81      1.0000 0.87747  0.49280  0.87747  Biso   1.000  C 
  C82      1.0000 0.90720  0.41460  0.90720  Biso   1.000  C 
  H96      1.0000 0.88080  0.37250  0.88080  Biso   1.000  H 
  H97      1.0000 0.96260  0.41100  0.89870  Biso   1.000  H 
  H98      1.0000 0.89870  0.41100  0.96260  Biso   1.000  H 
  N45      1.0000 0.68285  0.40960  0.97085  Biso   1.000  N 
  C83      1.0000 0.68860  0.36630  0.90200  Biso   1.000  C 
  C84      1.0000 0.63370  0.31140  0.90200  Biso   1.000  C 
  H99      1.0000 0.62540  0.27490  0.86240  Biso   1.000  H 
  N46      1.0000 0.59040  0.31715  0.97085  Biso   1.000  N 
  C85      1.0000 0.62253  0.37747  0.00720  Biso   1.000  C 
  C86      1.0000 0.59280  0.40720  0.08540  Biso   1.000  C 
  H100     1.0000 0.61920  0.38080  0.12750  Biso   1.000  H 
  H101     1.0000 0.60130  0.46260  0.08900  Biso   1.000  H 
  H102     1.0000 0.53740  0.39870  0.08900  Biso   1.000  H 
  H103     1.0000 0.72510  0.37460  0.86240  Biso   1.000  H 
  H104     1.0000 0.87460  0.36240  0.22510  Biso   1.000  H 
  C87      1.0000 0.99280  0.37747  0.37747  Biso   1.000  C 
  C88      1.0000 0.91460  0.40720  0.40720  Biso   1.000  C 
  H105     1.0000 0.87250  0.38080  0.38080  Biso   1.000  H 
  H106     1.0000 0.91100  0.39870  0.46260  Biso   1.000  H 
  H107     1.0000 0.91100  0.46260  0.39870  Biso   1.000  H 
  N47      1.0000 0.97085  0.31715  0.59040  Biso   1.000  N 
  C89      1.0000 0.90200  0.31140  0.63370  Biso   1.000  C 
  H108     1.0000 0.86240  0.27490  0.62540  Biso   1.000  H 
  C90      1.0000 0.90200  0.36630  0.68860  Biso   1.000  C 
  H109     1.0000 0.86240  0.37460  0.72510  Biso   1.000  H 
  N48      1.0000 0.97085  0.40960  0.68285  Biso   1.000  N 
  C91      1.0000 0.00720  0.37747  0.62253  Biso   1.000  C 
  C92      1.0000 0.08540  0.40720  0.59280  Biso   1.000  C 
  H110     1.0000 0.08900  0.39870  0.53740  Biso   1.000  H 
  H111     1.0000 0.12750  0.38080  0.61920  Biso   1.000  H 
  H112     1.0000 0.08900  0.46260  0.60130  Biso   1.000  H 
  C93      1.0000 0.37747  0.99280  0.37747  Biso   1.000  C 
  C94      1.0000 0.40720  0.91460  0.40720  Biso   1.000  C 
  H113     1.0000 0.38080  0.87250  0.38080  Biso   1.000  H 
  H114     1.0000 0.46260  0.91100  0.39870  Biso   1.000  H 
  H115     1.0000 0.39870  0.91100  0.46260  Biso   1.000  H 
  H116     1.0000 0.37460  0.13760  0.27490  Biso   1.000  H 
  C95      1.0000 0.37747  0.37747  0.99280  Biso   1.000  C 
  C96      1.0000 0.40720  0.40720  0.91460  Biso   1.000  C 
  H117     1.0000 0.38080  0.38080  0.87250  Biso   1.000  H 
  H118     1.0000 0.39870  0.46260  0.91100  Biso   1.000  H 
  H119     1.0000 0.46260  0.39870  0.91100  Biso   1.000  H 
  H120     1.0000 0.27490  0.37460  0.13760  Biso   1.000  H 
