data_image0
_cell_length_a       18.971
_cell_length_b       15.5933
_cell_length_c       19.549
_cell_angle_alpha    90
_cell_angle_beta     101.681
_cell_angle_gamma    90

_symmetry_space_group_name_H-M    "P 1"
_symmetry_int_tables_number       1

loop_
  _symmetry_equiv_pos_as_xyz
  'x, y, z'

loop_
  _atom_site_label
  _atom_site_occupancy
  _atom_site_fract_x
  _atom_site_fract_y
  _atom_site_fract_z
  _atom_site_thermal_displace_type
  _atom_site_B_iso_or_equiv
  _atom_site_type_symbol
  Sm1      1.0000 0.75000  0.59227  0.00000  Biso   1.000  Sm
  O1       1.0000 0.83050  0.49560  0.96710  Biso   1.000  O 
  C1       1.0000 0.88750  0.45710  0.96030  Biso   1.000  C 
  C2       1.0000 0.90020  0.36890  0.99400  Biso   1.000  C 
  C3       1.0000 0.85040  0.33380  0.02840  Biso   1.000  C 
  C4       1.0000 0.85890  0.24970  0.05240  Biso   1.000  C 
  H1       1.0000 0.82464  0.22727  0.07543  Biso   1.000  H 
  N1       1.0000 0.91410  0.19900  0.04400  Biso   1.000  N 
  C5       1.0000 0.96380  0.23540  0.01390  Biso   1.000  C 
  C6       1.0000 0.95850  0.31910  0.98860  Biso   1.000  C 
  H2       1.0000 0.99460  0.34139  0.96788  Biso   1.000  H 
  H3       1.0000 0.00391  0.20327  0.00962  Biso   1.000  H 
  Cu1      1.0000 0.92304  0.07790  0.07959  Biso   1.000  Cu
  N2       1.0000 0.98940  0.08470  0.17750  Biso   1.000  N 
  C7       1.0000 0.96620  0.09810  0.23560  Biso   1.000  C 
  H4       1.0000 0.91716  0.10597  0.23287  Biso   1.000  H 
  C8       1.0000 0.01160  0.10090  0.30090  Biso   1.000  C 
  C9       1.0000 0.08390  0.08870  0.30780  Biso   1.000  C 
  C10      1.0000 0.13740  0.08720  0.37760  Biso   1.000  C 
  Sm2      1.0000 0.25000  0.09227  0.50000  Biso   1.000  Sm
  O2       1.0000 0.12250  0.13110  0.42660  Biso   1.000  O 
  O3       1.0000 0.27950  0.20150  0.42950  Biso   1.000  O 
  C11      1.0000 0.29710  0.27380  0.40960  Biso   1.000  C 
  C12      1.0000 0.24340  0.34720  0.41010  Biso   1.000  C 
  C13      1.0000 0.17110  0.33330  0.41180  Biso   1.000  C 
  H5       1.0000 0.15311  0.27779  0.41115  Biso   1.000  H 
  C14      1.0000 0.12680  0.40200  0.41430  Biso   1.000  C 
  H6       1.0000 0.07882  0.39175  0.41552  Biso   1.000  H 
  N3       1.0000 0.14990  0.48460  0.41520  Biso   1.000  N 
  C15      1.0000 0.21860  0.49780  0.41310  Biso   1.000  C 
  H7       1.0000 0.23514  0.55404  0.41371  Biso   1.000  H 
  C16      1.0000 0.26670  0.43200  0.41010  Biso   1.000  C 
  H8       1.0000 0.31426  0.44417  0.40798  Biso   1.000  H 
  Cu2      1.0000 0.07696  0.57790  0.42041  Biso   1.000  Cu
  N4       1.0000 0.08590  0.69900  0.45600  Biso   1.000  N 
  C17      1.0000 0.03620  0.73540  0.48610  Biso   1.000  C 
  C18      1.0000 0.04150  0.81910  0.51140  Biso   1.000  C 
  C19      1.0000 0.09980  0.86890  0.50600  Biso   1.000  C 
  C20      1.0000 0.14960  0.83380  0.47160  Biso   1.000  C 
  C21      1.0000 0.14110  0.74970  0.44760  Biso   1.000  C 
  H9       1.0000 0.17536  0.72727  0.42457  Biso   1.000  H 
  H10      1.0000 0.18864  0.86624  0.46445  Biso   1.000  H 
  C22      1.0000 0.11250  0.95710  0.53970  Biso   1.000  C 
  O4       1.0000 0.16950  0.99560  0.53290  Biso   1.000  O 
  O5       1.0000 0.06950  0.98350  0.57430  Biso   1.000  O 
  H11      1.0000 0.00541  0.84139  0.53212  Biso   1.000  H 
  H12      1.0000 0.99609  0.70327  0.49038  Biso   1.000  H 
  N5       1.0000 0.01060  0.58470  0.32250  Biso   1.000  N 
  C23      1.0000 0.03380  0.59810  0.26440  Biso   1.000  C 
  H13      1.0000 0.08284  0.60596  0.26713  Biso   1.000  H 
  C24      1.0000 0.98840  0.60090  0.19910  Biso   1.000  C 
  C25      1.0000 0.91610  0.58870  0.19220  Biso   1.000  C 
  C26      1.0000 0.86260  0.58720  0.12240  Biso   1.000  C 
  O6       1.0000 0.87750  0.63110  0.07340  Biso   1.000  O 
  O7       1.0000 0.80730  0.54140  0.11770  Biso   1.000  O 
  C27      1.0000 0.89130  0.57490  0.25270  Biso   1.000  C 
  H14      1.0000 0.84255  0.56576  0.25086  Biso   1.000  H 
  C28      1.0000 0.93890  0.57470  0.31600  Biso   1.000  C 
  H15      1.0000 0.92074  0.56729  0.35634  Biso   1.000  H 
  H16      1.0000 0.00747  0.61125  0.15959  Biso   1.000  H 
  Br1      1.0000 0.00000  0.50000  0.50000  Biso   1.000  Br
  Cu3      1.0000 0.92304  0.42210  0.57959  Biso   1.000  Cu
  N6       1.0000 0.91410  0.30100  0.54400  Biso   1.000  N 
  C29      1.0000 0.85890  0.25030  0.55240  Biso   1.000  C 
  H17      1.0000 0.82464  0.27273  0.57543  Biso   1.000  H 
  C30      1.0000 0.85040  0.16620  0.52840  Biso   1.000  C 
  H18      1.0000 0.81136  0.13376  0.53555  Biso   1.000  H 
  C31      1.0000 0.90020  0.13110  0.49400  Biso   1.000  C 
  C32      1.0000 0.88750  0.04290  0.46030  Biso   1.000  C 
  O8       1.0000 0.83050  0.00440  0.46710  Biso   1.000  O 
  Sm3      1.0000 0.75000  0.90773  0.50000  Biso   1.000  Sm
  O9       1.0000 0.62250  0.86890  0.42660  Biso   1.000  O 
  C33      1.0000 0.63740  0.91280  0.37760  Biso   1.000  C 
  C34      1.0000 0.58390  0.91130  0.30780  Biso   1.000  C 
  C35      1.0000 0.51160  0.89910  0.30090  Biso   1.000  C 
  H19      1.0000 0.49253  0.88875  0.34041  Biso   1.000  H 
  C36      1.0000 0.46620  0.90190  0.23560  Biso   1.000  C 
  H20      1.0000 0.41716  0.89404  0.23287  Biso   1.000  H 
  N7       1.0000 0.48940  0.91530  0.17750  Biso   1.000  N 
  C37      1.0000 0.56110  0.92530  0.18400  Biso   1.000  C 
  H21      1.0000 0.57926  0.93271  0.14366  Biso   1.000  H 
  C38      1.0000 0.60870  0.92510  0.24730  Biso   1.000  C 
  H22      1.0000 0.65745  0.93424  0.24914  Biso   1.000  H 
  Cu4      1.0000 0.42304  0.92210  0.07959  Biso   1.000  Cu
  N8       1.0000 0.41410  0.80100  0.04400  Biso   1.000  N 
  C39      1.0000 0.35890  0.75030  0.05240  Biso   1.000  C 
  H23      1.0000 0.32464  0.77273  0.07543  Biso   1.000  H 
  C40      1.0000 0.35040  0.66620  0.02840  Biso   1.000  C 
  H24      1.0000 0.31136  0.63376  0.03555  Biso   1.000  H 
  C41      1.0000 0.40020  0.63110  0.99400  Biso   1.000  C 
  C42      1.0000 0.38750  0.54290  0.96030  Biso   1.000  C 
  O10      1.0000 0.33050  0.50440  0.96710  Biso   1.000  O 
  Sm4      1.0000 0.25000  0.40773  0.00000  Biso   1.000  Sm
  O11      1.0000 0.27950  0.29850  0.92950  Biso   1.000  O 
  C43      1.0000 0.29710  0.22620  0.90960  Biso   1.000  C 
  C44      1.0000 0.24340  0.15280  0.91010  Biso   1.000  C 
  C45      1.0000 0.17110  0.16670  0.91180  Biso   1.000  C 
  H25      1.0000 0.15311  0.22221  0.91115  Biso   1.000  H 
  C46      1.0000 0.12680  0.09800  0.91430  Biso   1.000  C 
  H26      1.0000 0.07882  0.10826  0.91552  Biso   1.000  H 
  N9       1.0000 0.14990  0.01540  0.91520  Biso   1.000  N 
  C47      1.0000 0.21860  0.00220  0.91310  Biso   1.000  C 
  H27      1.0000 0.23514  0.94596  0.91371  Biso   1.000  H 
  C48      1.0000 0.26670  0.06800  0.91010  Biso   1.000  C 
  H28      1.0000 0.31426  0.05583  0.90798  Biso   1.000  H 
  Cu5      1.0000 0.07696  0.92210  0.92041  Biso   1.000  Cu
  N10      1.0000 0.08590  0.80100  0.95600  Biso   1.000  N 
  C49      1.0000 0.03620  0.76460  0.98610  Biso   1.000  C 
  H29      1.0000 0.99609  0.79673  0.99038  Biso   1.000  H 
  C50      1.0000 0.04150  0.68090  0.01140  Biso   1.000  C 
  H30      1.0000 0.00541  0.65861  0.03212  Biso   1.000  H 
  C51      1.0000 0.09980  0.63110  0.00600  Biso   1.000  C 
  C52      1.0000 0.14960  0.66620  0.97160  Biso   1.000  C 
  H31      1.0000 0.18864  0.63376  0.96445  Biso   1.000  H 
  C53      1.0000 0.14110  0.75030  0.94760  Biso   1.000  C 
  H32      1.0000 0.17536  0.77273  0.92457  Biso   1.000  H 
  C54      1.0000 0.11250  0.54290  0.03970  Biso   1.000  C 
  O12      1.0000 0.16950  0.50440  0.03290  Biso   1.000  O 
  O13      1.0000 0.06950  0.51650  0.07430  Biso   1.000  O 
  N11      1.0000 0.01060  0.91530  0.82250  Biso   1.000  N 
  C55      1.0000 0.03380  0.90190  0.76440  Biso   1.000  C 
  H33      1.0000 0.08284  0.89404  0.76713  Biso   1.000  H 
  C56      1.0000 0.98840  0.89910  0.69910  Biso   1.000  C 
  C57      1.0000 0.91610  0.91130  0.69220  Biso   1.000  C 
  C58      1.0000 0.86260  0.91280  0.62240  Biso   1.000  C 
  O14      1.0000 0.87750  0.86890  0.57340  Biso   1.000  O 
  O15      1.0000 0.80730  0.95860  0.61770  Biso   1.000  O 
  C59      1.0000 0.89130  0.92510  0.75270  Biso   1.000  C 
  H34      1.0000 0.84255  0.93424  0.75086  Biso   1.000  H 
  C60      1.0000 0.93890  0.92530  0.81600  Biso   1.000  C 
  H35      1.0000 0.92074  0.93271  0.85634  Biso   1.000  H 
  H36      1.0000 0.00747  0.88875  0.65959  Biso   1.000  H 
  Br2      1.0000 0.00000  0.00000  0.00000  Biso   1.000  Br
  O16      1.0000 0.35170  0.21190  0.88670  Biso   1.000  O 
  O17      1.0000 0.12250  0.36890  0.92660  Biso   1.000  O 
  C61      1.0000 0.13740  0.41280  0.87760  Biso   1.000  C 
  C62      1.0000 0.08390  0.41130  0.80780  Biso   1.000  C 
  C63      1.0000 0.01160  0.39910  0.80090  Biso   1.000  C 
  C64      1.0000 0.96620  0.40190  0.73560  Biso   1.000  C 
  H37      1.0000 0.91716  0.39404  0.73287  Biso   1.000  H 
  N12      1.0000 0.98940  0.41530  0.67750  Biso   1.000  N 
  C65      1.0000 0.06110  0.42530  0.68400  Biso   1.000  C 
  H38      1.0000 0.07926  0.43271  0.64366  Biso   1.000  H 
  C66      1.0000 0.10870  0.42510  0.74730  Biso   1.000  C 
  H39      1.0000 0.15745  0.43424  0.74914  Biso   1.000  H 
  H40      1.0000 0.99253  0.38875  0.84041  Biso   1.000  H 
  O18      1.0000 0.19270  0.45860  0.88230  Biso   1.000  O 
  O19      1.0000 0.22050  0.29850  0.07050  Biso   1.000  O 
  C67      1.0000 0.20290  0.22620  0.09040  Biso   1.000  C 
  C68      1.0000 0.25660  0.15280  0.08990  Biso   1.000  C 
  C69      1.0000 0.32890  0.16670  0.08820  Biso   1.000  C 
  H41      1.0000 0.34689  0.22221  0.08885  Biso   1.000  H 
  C70      1.0000 0.37320  0.09800  0.08570  Biso   1.000  C 
  H42      1.0000 0.42118  0.10826  0.08448  Biso   1.000  H 
  N13      1.0000 0.35010  0.01540  0.08480  Biso   1.000  N 
  C71      1.0000 0.28140  0.00220  0.08690  Biso   1.000  C 
  H43      1.0000 0.26486  0.94596  0.08629  Biso   1.000  H 
  C72      1.0000 0.23330  0.06800  0.08990  Biso   1.000  C 
  H44      1.0000 0.18574  0.05583  0.09202  Biso   1.000  H 
  O20      1.0000 0.14830  0.21190  0.11330  Biso   1.000  O 
  O21      1.0000 0.37750  0.36890  0.07340  Biso   1.000  O 
  C73      1.0000 0.36260  0.41280  0.12240  Biso   1.000  C 
  C74      1.0000 0.41610  0.41130  0.19220  Biso   1.000  C 
  C75      1.0000 0.48840  0.39910  0.19910  Biso   1.000  C 
  H45      1.0000 0.50747  0.38875  0.15959  Biso   1.000  H 
  C76      1.0000 0.53380  0.40190  0.26440  Biso   1.000  C 
  H46      1.0000 0.58284  0.39404  0.26713  Biso   1.000  H 
  N14      1.0000 0.51060  0.41530  0.32250  Biso   1.000  N 
  C77      1.0000 0.43890  0.42530  0.31600  Biso   1.000  C 
  C78      1.0000 0.39130  0.42510  0.25270  Biso   1.000  C 
  H47      1.0000 0.34255  0.43424  0.25086  Biso   1.000  H 
  H48      1.0000 0.42074  0.43271  0.35634  Biso   1.000  H 
  Cu6      1.0000 0.57696  0.42210  0.42041  Biso   1.000  Cu
  N15      1.0000 0.58590  0.30100  0.45600  Biso   1.000  N 
  C79      1.0000 0.64110  0.25030  0.44760  Biso   1.000  C 
  H49      1.0000 0.67536  0.27273  0.42457  Biso   1.000  H 
  C80      1.0000 0.64960  0.16620  0.47160  Biso   1.000  C 
  C81      1.0000 0.59980  0.13110  0.50600  Biso   1.000  C 
  C82      1.0000 0.61250  0.04290  0.53970  Biso   1.000  C 
  O22      1.0000 0.66950  0.00440  0.53290  Biso   1.000  O 
  O23      1.0000 0.56950  0.01650  0.57430  Biso   1.000  O 
  C83      1.0000 0.54150  0.18090  0.51140  Biso   1.000  C 
  H50      1.0000 0.50540  0.15861  0.53212  Biso   1.000  H 
  C84      1.0000 0.53620  0.26460  0.48610  Biso   1.000  C 
  H51      1.0000 0.49609  0.29673  0.49038  Biso   1.000  H 
  H52      1.0000 0.68864  0.13376  0.46445  Biso   1.000  H 
  N16      1.0000 0.64990  0.51540  0.41520  Biso   1.000  N 
  C85      1.0000 0.71860  0.50220  0.41310  Biso   1.000  C 
  H53      1.0000 0.73514  0.44596  0.41371  Biso   1.000  H 
  C86      1.0000 0.76670  0.56800  0.41010  Biso   1.000  C 
  C87      1.0000 0.74340  0.65280  0.41010  Biso   1.000  C 
  C88      1.0000 0.67110  0.66670  0.41180  Biso   1.000  C 
  H54      1.0000 0.65311  0.72221  0.41115  Biso   1.000  H 
  C89      1.0000 0.62680  0.59800  0.41430  Biso   1.000  C 
  H55      1.0000 0.57882  0.60825  0.41552  Biso   1.000  H 
  C90      1.0000 0.79710  0.72620  0.40960  Biso   1.000  C 
  O24      1.0000 0.77950  0.79850  0.42950  Biso   1.000  O 
  O25      1.0000 0.85170  0.71190  0.38670  Biso   1.000  O 
  H56      1.0000 0.81425  0.55583  0.40798  Biso   1.000  H 
  Br3      1.0000 0.50000  0.50000  0.50000  Biso   1.000  Br
  Cu7      1.0000 0.42304  0.57790  0.57959  Biso   1.000  Cu
  N17      1.0000 0.41410  0.69900  0.54400  Biso   1.000  N 
  C91      1.0000 0.46380  0.73540  0.51390  Biso   1.000  C 
  C92      1.0000 0.45850  0.81910  0.48860  Biso   1.000  C 
  C93      1.0000 0.40020  0.86890  0.49400  Biso   1.000  C 
  C94      1.0000 0.35040  0.83380  0.52840  Biso   1.000  C 
  H57      1.0000 0.31136  0.86624  0.53555  Biso   1.000  H 
  C95      1.0000 0.35890  0.74970  0.55240  Biso   1.000  C 
  H58      1.0000 0.32464  0.72727  0.57543  Biso   1.000  H 
  C96      1.0000 0.38750  0.95710  0.46030  Biso   1.000  C 
  O26      1.0000 0.33050  0.99560  0.46710  Biso   1.000  O 
  O27      1.0000 0.43050  0.98350  0.42570  Biso   1.000  O 
  H59      1.0000 0.49459  0.84139  0.46788  Biso   1.000  H 
  H60      1.0000 0.50391  0.70327  0.50962  Biso   1.000  H 
  N18      1.0000 0.35010  0.48460  0.58480  Biso   1.000  N 
  C97      1.0000 0.37320  0.40200  0.58570  Biso   1.000  C 
  C98      1.0000 0.32890  0.33330  0.58820  Biso   1.000  C 
  H61      1.0000 0.34689  0.27779  0.58885  Biso   1.000  H 
  C99      1.0000 0.25660  0.34720  0.58990  Biso   1.000  C 
  C100     1.0000 0.20290  0.27380  0.59040  Biso   1.000  C 
  O28      1.0000 0.22050  0.20150  0.57050  Biso   1.000  O 
  O29      1.0000 0.14830  0.28810  0.61330  Biso   1.000  O 
  C101     1.0000 0.23330  0.43200  0.58990  Biso   1.000  C 
  H62      1.0000 0.18574  0.44417  0.59202  Biso   1.000  H 
  C102     1.0000 0.28140  0.49780  0.58690  Biso   1.000  C 
  H63      1.0000 0.26486  0.55404  0.58629  Biso   1.000  H 
  H64      1.0000 0.42118  0.39175  0.58448  Biso   1.000  H 
  N19      1.0000 0.48940  0.58470  0.67750  Biso   1.000  N 
  C103     1.0000 0.46620  0.59810  0.73560  Biso   1.000  C 
  H65      1.0000 0.41716  0.60596  0.73287  Biso   1.000  H 
  C104     1.0000 0.51160  0.60090  0.80090  Biso   1.000  C 
  H66      1.0000 0.49253  0.61125  0.84041  Biso   1.000  H 
  C105     1.0000 0.58390  0.58870  0.80780  Biso   1.000  C 
  C106     1.0000 0.63740  0.58720  0.87760  Biso   1.000  C 
  O30      1.0000 0.62250  0.63110  0.92660  Biso   1.000  O 
  O31      1.0000 0.69270  0.54140  0.88230  Biso   1.000  O 
  C107     1.0000 0.60870  0.57490  0.74730  Biso   1.000  C 
  H67      1.0000 0.65745  0.56576  0.74914  Biso   1.000  H 
  C108     1.0000 0.56110  0.57470  0.68400  Biso   1.000  C 
  H68      1.0000 0.57926  0.56729  0.64366  Biso   1.000  H 
  O32      1.0000 0.30730  0.45860  0.11770  Biso   1.000  O 
  O33      1.0000 0.43050  0.51650  0.92570  Biso   1.000  O 
  C109     1.0000 0.45850  0.68090  0.98860  Biso   1.000  C 
  H69      1.0000 0.49459  0.65861  0.96788  Biso   1.000  H 
  C110     1.0000 0.46380  0.76460  0.01390  Biso   1.000  C 
  H70      1.0000 0.50391  0.79673  0.00962  Biso   1.000  H 
  Br4      1.0000 0.50000  0.00000  0.00000  Biso   1.000  Br
  Cu8      1.0000 0.57696  0.07790  0.92041  Biso   1.000  Cu
  N20      1.0000 0.58590  0.19900  0.95600  Biso   1.000  N 
  C111     1.0000 0.53620  0.23540  0.98610  Biso   1.000  C 
  H71      1.0000 0.49609  0.20327  0.99038  Biso   1.000  H 
  C112     1.0000 0.54150  0.31910  0.01140  Biso   1.000  C 
  H72      1.0000 0.50540  0.34139  0.03212  Biso   1.000  H 
  C113     1.0000 0.59980  0.36890  0.00600  Biso   1.000  C 
  C114     1.0000 0.64960  0.33380  0.97160  Biso   1.000  C 
  C115     1.0000 0.64110  0.24970  0.94760  Biso   1.000  C 
  H73      1.0000 0.67536  0.22727  0.92457  Biso   1.000  H 
  H74      1.0000 0.68864  0.36624  0.96445  Biso   1.000  H 
  C116     1.0000 0.61250  0.45710  0.03970  Biso   1.000  C 
  O34      1.0000 0.66950  0.49560  0.03290  Biso   1.000  O 
  O35      1.0000 0.56950  0.48350  0.07430  Biso   1.000  O 
  N21      1.0000 0.51060  0.08470  0.82250  Biso   1.000  N 
  C117     1.0000 0.53380  0.09810  0.76440  Biso   1.000  C 
  H75      1.0000 0.58284  0.10597  0.76713  Biso   1.000  H 
  C118     1.0000 0.48840  0.10090  0.69910  Biso   1.000  C 
  C119     1.0000 0.41610  0.08870  0.69220  Biso   1.000  C 
  C120     1.0000 0.36260  0.08720  0.62240  Biso   1.000  C 
  O36      1.0000 0.37750  0.13110  0.57340  Biso   1.000  O 
  O37      1.0000 0.30730  0.04140  0.61770  Biso   1.000  O 
  C121     1.0000 0.39130  0.07490  0.75270  Biso   1.000  C 
  H76      1.0000 0.34255  0.06576  0.75086  Biso   1.000  H 
  C122     1.0000 0.43890  0.07470  0.81600  Biso   1.000  C 
  H77      1.0000 0.42074  0.06730  0.85634  Biso   1.000  H 
  H78      1.0000 0.50747  0.11125  0.65959  Biso   1.000  H 
  N22      1.0000 0.64990  0.98460  0.91520  Biso   1.000  N 
  C123     1.0000 0.71860  0.99780  0.91310  Biso   1.000  C 
  C124     1.0000 0.76670  0.93200  0.91010  Biso   1.000  C 
  C125     1.0000 0.74340  0.84720  0.91010  Biso   1.000  C 
  C126     1.0000 0.67110  0.83330  0.91180  Biso   1.000  C 
  H79      1.0000 0.65311  0.77779  0.91115  Biso   1.000  H 
  C127     1.0000 0.62680  0.90200  0.91430  Biso   1.000  C 
  H80      1.0000 0.57882  0.89175  0.91552  Biso   1.000  H 
  C128     1.0000 0.79710  0.77380  0.90960  Biso   1.000  C 
  O38      1.0000 0.77950  0.70150  0.92950  Biso   1.000  O 
  O39      1.0000 0.85170  0.78810  0.88670  Biso   1.000  O 
  H81      1.0000 0.81425  0.94417  0.90798  Biso   1.000  H 
  H82      1.0000 0.73514  0.05404  0.91371  Biso   1.000  H 
  O40      1.0000 0.69270  0.95860  0.38230  Biso   1.000  O 
  O41      1.0000 0.72050  0.79850  0.57050  Biso   1.000  O 
  C129     1.0000 0.70290  0.72620  0.59040  Biso   1.000  C 
  C130     1.0000 0.75660  0.65280  0.58990  Biso   1.000  C 
  C131     1.0000 0.82890  0.66670  0.58820  Biso   1.000  C 
  H83      1.0000 0.84689  0.72221  0.58885  Biso   1.000  H 
  C132     1.0000 0.87320  0.59800  0.58570  Biso   1.000  C 
  H84      1.0000 0.92118  0.60825  0.58448  Biso   1.000  H 
  N23      1.0000 0.85010  0.51540  0.58480  Biso   1.000  N 
  C133     1.0000 0.78140  0.50220  0.58690  Biso   1.000  C 
  H85      1.0000 0.76486  0.44596  0.58629  Biso   1.000  H 
  C134     1.0000 0.73330  0.56800  0.58990  Biso   1.000  C 
  H86      1.0000 0.68575  0.55583  0.59202  Biso   1.000  H 
  O42      1.0000 0.64830  0.71190  0.61330  Biso   1.000  O 
  O43      1.0000 0.93050  0.01650  0.42570  Biso   1.000  O 
  C135     1.0000 0.95850  0.18090  0.48860  Biso   1.000  C 
  H87      1.0000 0.99460  0.15861  0.46788  Biso   1.000  H 
  C136     1.0000 0.96380  0.26460  0.51390  Biso   1.000  C 
  H88      1.0000 0.00391  0.29673  0.50962  Biso   1.000  H 
  O44      1.0000 0.35170  0.28810  0.38670  Biso   1.000  O 
  O45      1.0000 0.19270  0.04140  0.38230  Biso   1.000  O 
  C137     1.0000 0.10870  0.07490  0.24730  Biso   1.000  C 
  H89      1.0000 0.15745  0.06576  0.24914  Biso   1.000  H 
  C138     1.0000 0.06110  0.07470  0.18400  Biso   1.000  C 
  H90      1.0000 0.07926  0.06730  0.14366  Biso   1.000  H 
  H91      1.0000 0.99253  0.11125  0.34041  Biso   1.000  H 
  N24      1.0000 0.85010  0.98460  0.08480  Biso   1.000  N 
  C139     1.0000 0.87320  0.90200  0.08570  Biso   1.000  C 
  H92      1.0000 0.92118  0.89175  0.08448  Biso   1.000  H 
  C140     1.0000 0.82890  0.83330  0.08820  Biso   1.000  C 
  H93      1.0000 0.84689  0.77779  0.08885  Biso   1.000  H 
  C141     1.0000 0.75660  0.84720  0.08990  Biso   1.000  C 
  C142     1.0000 0.70290  0.77380  0.09040  Biso   1.000  C 
  O46      1.0000 0.72050  0.70150  0.07050  Biso   1.000  O 
  O47      1.0000 0.64830  0.78810  0.11330  Biso   1.000  O 
  C143     1.0000 0.73330  0.93200  0.08990  Biso   1.000  C 
  H94      1.0000 0.68575  0.94417  0.09202  Biso   1.000  H 
  C144     1.0000 0.78140  0.99780  0.08690  Biso   1.000  C 
  H95      1.0000 0.76486  0.05404  0.08629  Biso   1.000  H 
  H96      1.0000 0.81136  0.36624  0.03555  Biso   1.000  H 
  O48      1.0000 0.93050  0.48350  0.92570  Biso   1.000  O 
