data_image0
_cell_length_a       24.831
_cell_length_b       9.586
_cell_length_c       10.703
_cell_angle_alpha    90
_cell_angle_beta     98.294
_cell_angle_gamma    90

_symmetry_space_group_name_H-M    "P 1"
_symmetry_int_tables_number       1

loop_
  _symmetry_equiv_pos_as_xyz
  'x, y, z'

loop_
  _atom_site_label
  _atom_site_occupancy
  _atom_site_fract_x
  _atom_site_fract_y
  _atom_site_fract_z
  _atom_site_thermal_displace_type
  _atom_site_B_iso_or_equiv
  _atom_site_type_symbol
  C1       1.0000 0.65897  0.55780  0.46420  Biso   1.000  C 
  H1       1.0000 0.66470  0.49540  0.40090  Biso   1.000  H 
  C2       1.0000 0.61540  0.65330  0.44500  Biso   1.000  C 
  C3       1.0000 0.60721  0.74400  0.54300  Biso   1.000  C 
  C4       1.0000 0.55860  0.82980  0.49900  Biso   1.000  C 
  C5       1.0000 0.53864  0.78690  0.37350  Biso   1.000  C 
  C6       1.0000 0.49200  0.85280  0.31130  Biso   1.000  C 
  H2       1.0000 0.47740  0.82560  0.23000  Biso   1.000  H 
  C7       1.0000 0.46760  0.95920  0.37150  Biso   1.000  C 
  C8       1.0000 0.41760  0.03180  0.30730  Biso   1.000  C 
  O1       1.0000 0.40011  0.00770  0.19470  Biso   1.000  O 
  Zn1      1.0000 0.33231  0.15388  0.21827  Biso   1.000  Zn
  N1       1.0000 0.36383  0.31840  0.12600  Biso   1.000  N 
  C9       1.0000 0.39850  0.31240  0.04400  Biso   1.000  C 
  H3       1.0000 0.40980  0.22540  0.01960  Biso   1.000  H 
  C10      1.0000 0.41890  0.43040  0.99280  Biso   1.000  C 
  H4       1.0000 0.44270  0.42150  0.93380  Biso   1.000  H 
  C11      1.0000 0.40440  0.55640  0.02760  Biso   1.000  C 
  C12      1.0000 0.36790  0.56940  0.11930  Biso   1.000  C 
  C13      1.0000 0.34872  0.44490  0.16580  Biso   1.000  C 
  C14      1.0000 0.31130  0.44670  0.25530  Biso   1.000  C 
  N2       1.0000 0.29460  0.32370  0.29580  Biso   1.000  N 
  C15      1.0000 0.25970  0.32490  0.37950  Biso   1.000  C 
  H5       1.0000 0.24810  0.24000  0.40820  Biso   1.000  H 
  C16      1.0000 0.23990  0.44750  0.42570  Biso   1.000  C 
  H6       1.0000 0.21500  0.44560  0.48280  Biso   1.000  H 
  C17      1.0000 0.25900  0.57400  0.38270  Biso   1.000  C 
  H7       1.0000 0.24710  0.65750  0.41350  Biso   1.000  H 
  C18      1.0000 0.29380  0.57730  0.29880  Biso   1.000  C 
  C19      1.0000 0.31490  0.70200  0.24880  Biso   1.000  C 
  H8       1.0000 0.30390  0.78790  0.27670  Biso   1.000  H 
  C20      1.0000 0.34910  0.69990  0.16480  Biso   1.000  C 
  H9       1.0000 0.36110  0.78350  0.13470  Biso   1.000  H 
  H10      1.0000 0.41780  0.63570  0.99270  Biso   1.000  H 
  O2       1.0000 0.27253  0.02330  0.20130  Biso   1.000  O 
  C21      1.0000 0.24120  0.04020  0.09940  Biso   1.000  C 
  O3       1.0000 0.24680  0.13080  0.02210  Biso   1.000  O 
  C22      1.0000 0.19290  0.94180  0.07760  Biso   1.000  C 
  C23      1.0000 0.18370  0.85010  0.17250  Biso   1.000  C 
  H11      1.0000 0.20710  0.85080  0.24860  Biso   1.000  H 
  C24      1.0000 0.14047  0.75750  0.15670  Biso   1.000  C 
  H12      1.0000 0.13420  0.69790  0.22160  Biso   1.000  H 
  C25      1.0000 0.10721  0.75600  0.04300  Biso   1.000  C 
  C26      1.0000 0.11540  0.84670  0.94500  Biso   1.000  C 
  C27      1.0000 0.15897  0.94220  0.96420  Biso   1.000  C 
  H13      1.0000 0.16470  0.00460  0.90090  Biso   1.000  H 
  C28      1.0000 0.07360  0.82780  0.82930  Biso   1.000  C 
  C29      1.0000 0.10140  0.77420  0.71780  Biso   1.000  C 
  H14      1.0000 0.12330  0.84720  0.68990  Biso   1.000  H 
  H15      1.0000 0.07400  0.74670  0.64950  Biso   1.000  H 
  H16      1.0000 0.12400  0.69550  0.74500  Biso   1.000  H 
  C30      1.0000 0.04080  0.96170  0.79560  Biso   1.000  C 
  H17      1.0000 0.01150  0.94240  0.72920  Biso   1.000  H 
  H18      1.0000 0.02640  0.99480  0.86860  Biso   1.000  H 
  H19      1.0000 0.06420  0.03160  0.76800  Biso   1.000  H 
  C31      1.0000 0.03864  0.71310  0.87350  Biso   1.000  C 
  C32      1.0000 0.99200  0.64720  0.81130  Biso   1.000  C 
  H20      1.0000 0.97740  0.67440  0.73000  Biso   1.000  H 
  C33      1.0000 0.96760  0.54080  0.87150  Biso   1.000  C 
  C34      1.0000 0.91760  0.46820  0.80730  Biso   1.000  C 
  Zn2      1.0000 0.83231  0.34612  0.71827  Biso   1.000  Zn
  N3       1.0000 0.86383  0.18160  0.62600  Biso   1.000  N 
  C35      1.0000 0.89850  0.18760  0.54400  Biso   1.000  C 
  C36      1.0000 0.91890  0.06960  0.49280  Biso   1.000  C 
  H21      1.0000 0.94270  0.07850  0.43380  Biso   1.000  H 
  C37      1.0000 0.90440  0.94360  0.52760  Biso   1.000  C 
  H22      1.0000 0.91780  0.86430  0.49270  Biso   1.000  H 
  C38      1.0000 0.86790  0.93060  0.61930  Biso   1.000  C 
  C39      1.0000 0.84872  0.05510  0.66580  Biso   1.000  C 
  C40      1.0000 0.81130  0.05330  0.75530  Biso   1.000  C 
  N4       1.0000 0.79460  0.17630  0.79580  Biso   1.000  N 
  C41      1.0000 0.75970  0.17510  0.87950  Biso   1.000  C 
  H23      1.0000 0.74810  0.26000  0.90820  Biso   1.000  H 
  C42      1.0000 0.73990  0.05250  0.92570  Biso   1.000  C 
  H24      1.0000 0.71500  0.05440  0.98280  Biso   1.000  H 
  C43      1.0000 0.75900  0.92600  0.88270  Biso   1.000  C 
  H25      1.0000 0.74710  0.84250  0.91350  Biso   1.000  H 
  C44      1.0000 0.79380  0.92270  0.79880  Biso   1.000  C 
  C45      1.0000 0.81490  0.79800  0.74880  Biso   1.000  C 
  H26      1.0000 0.80390  0.71210  0.77670  Biso   1.000  H 
  C46      1.0000 0.84910  0.80010  0.66480  Biso   1.000  C 
  H27      1.0000 0.86110  0.71650  0.63470  Biso   1.000  H 
  H28      1.0000 0.90980  0.27460  0.51960  Biso   1.000  H 
  O4       1.0000 0.77253  0.47670  0.70130  Biso   1.000  O 
  C47      1.0000 0.74120  0.45980  0.59940  Biso   1.000  C 
  O5       1.0000 0.74680  0.36920  0.52210  Biso   1.000  O 
  C48      1.0000 0.69290  0.55820  0.57760  Biso   1.000  C 
  C49      1.0000 0.68370  0.64990  0.67250  Biso   1.000  C 
  H29      1.0000 0.70710  0.64920  0.74860  Biso   1.000  H 
  C50      1.0000 0.64047  0.74250  0.65670  Biso   1.000  C 
  H30      1.0000 0.63420  0.80210  0.72160  Biso   1.000  H 
  O6       1.0000 0.89307  0.38470  0.86850  Biso   1.000  O 
  O7       1.0000 0.90011  0.49230  0.69470  Biso   1.000  O 
  C51      1.0000 0.98780  0.50370  0.99430  Biso   1.000  C 
  H31      1.0000 0.97070  0.43400  0.03430  Biso   1.000  H 
  C52      1.0000 0.03337  0.56910  0.05820  Biso   1.000  C 
  H32      1.0000 0.04660  0.54400  0.14080  Biso   1.000  H 
  C53      1.0000 0.05860  0.67020  0.99900  Biso   1.000  C 
  O8       1.0000 0.39307  0.11530  0.36850  Biso   1.000  O 
  C54      1.0000 0.48780  0.99630  0.49430  Biso   1.000  C 
  H33      1.0000 0.47070  0.06600  0.53430  Biso   1.000  H 
  C55      1.0000 0.53337  0.93090  0.55820  Biso   1.000  C 
  H34      1.0000 0.54660  0.95600  0.64080  Biso   1.000  H 
  C56      1.0000 0.57360  0.67220  0.32930  Biso   1.000  C 
  C57      1.0000 0.54080  0.53830  0.29560  Biso   1.000  C 
  H35      1.0000 0.56420  0.46840  0.26800  Biso   1.000  H 
  H36      1.0000 0.52640  0.50520  0.36860  Biso   1.000  H 
  H37      1.0000 0.51150  0.55760  0.22920  Biso   1.000  H 
  C58      1.0000 0.60140  0.72580  0.21780  Biso   1.000  C 
  H38      1.0000 0.57400  0.75330  0.14950  Biso   1.000  H 
  H39      1.0000 0.62330  0.65280  0.18990  Biso   1.000  H 
  H40      1.0000 0.62400  0.80450  0.24500  Biso   1.000  H 
