data_image0
_cell_length_a       14.7255
_cell_length_b       22.4827
_cell_length_c       10.2852
_cell_angle_alpha    90
_cell_angle_beta     90
_cell_angle_gamma    90

_symmetry_space_group_name_H-M    "P 1"
_symmetry_int_tables_number       1

loop_
  _symmetry_equiv_pos_as_xyz
  'x, y, z'

loop_
  _atom_site_label
  _atom_site_occupancy
  _atom_site_fract_x
  _atom_site_fract_y
  _atom_site_fract_z
  _atom_site_thermal_displace_type
  _atom_site_B_iso_or_equiv
  _atom_site_type_symbol
  Zn1      1.0000 0.18045  0.25000  0.25000  Biso   1.000  Zn
  N1       1.0000 0.27250  0.22654  0.10650  Biso   1.000  N 
  C1       1.0000 0.29020  0.16923  0.08500  Biso   1.000  C 
  H1       1.0000 0.25730  0.14030  0.13300  Biso   1.000  H 
  C2       1.0000 0.35500  0.14959  0.99500  Biso   1.000  C 
  C3       1.0000 0.36860  0.08517  0.97730  Biso   1.000  C 
  C4       1.0000 0.37820  0.06170  0.85300  Biso   1.000  C 
  H2       1.0000 0.37860  0.08740  0.77960  Biso   1.000  H 
  C5       1.0000 0.38740  0.00020  0.83610  Biso   1.000  C 
  C6       1.0000 0.38950  0.96237  0.94270  Biso   1.000  C 
  C7       1.0000 0.39800  0.89772  0.92740  Biso   1.000  C 
  N2       1.0000 0.40210  0.87217  0.81860  Biso   1.000  N 
  C8       1.0000 0.40460  0.80713  0.81950  Biso   1.000  C 
  C9       1.0000 0.32060  0.78440  0.75080  Biso   1.000  C 
  C10      1.0000 0.32060  0.71560  0.74920  Biso   1.000  C 
  H3       1.0000 0.26560  0.70110  0.70370  Biso   1.000  H 
  H4       1.0000 0.31930  0.70040  0.83940  Biso   1.000  H 
  C11      1.0000 0.40460  0.69287  0.68050  Biso   1.000  C 
  C12      1.0000 0.48870  0.71610  0.75000  Biso   1.000  C 
  H5       1.0000 0.48950  0.70130  0.84070  Biso   1.000  H 
  H6       1.0000 0.54390  0.70120  0.70570  Biso   1.000  H 
  C13      1.0000 0.48870  0.78390  0.75000  Biso   1.000  C 
  H7       1.0000 0.48950  0.79870  0.65930  Biso   1.000  H 
  H8       1.0000 0.54390  0.79880  0.79430  Biso   1.000  H 
  H9       1.0000 0.40470  0.70740  0.58860  Biso   1.000  H 
  N3       1.0000 0.40210  0.62783  0.68140  Biso   1.000  N 
  C14      1.0000 0.39800  0.60228  0.57260  Biso   1.000  C 
  H10      1.0000 0.40050  0.62610  0.49640  Biso   1.000  H 
  C15      1.0000 0.38950  0.53763  0.55730  Biso   1.000  C 
  C16      1.0000 0.38740  0.49980  0.66390  Biso   1.000  C 
  H11      1.0000 0.39230  0.51580  0.74910  Biso   1.000  H 
  C17      1.0000 0.37820  0.43830  0.64700  Biso   1.000  C 
  H12      1.0000 0.37860  0.41260  0.72040  Biso   1.000  H 
  C18      1.0000 0.36860  0.41483  0.52270  Biso   1.000  C 
  C19      1.0000 0.35500  0.35041  0.50500  Biso   1.000  C 
  C20      1.0000 0.29020  0.33077  0.41500  Biso   1.000  C 
  H13      1.0000 0.25730  0.35970  0.36700  Biso   1.000  H 
  N4       1.0000 0.27250  0.27346  0.39350  Biso   1.000  N 
  C21      1.0000 0.31970  0.23260  0.45990  Biso   1.000  C 
  H14      1.0000 0.30740  0.19170  0.44480  Biso   1.000  H 
  C22      1.0000 0.38510  0.24774  0.54900  Biso   1.000  C 
  H15      1.0000 0.41780  0.21780  0.59420  Biso   1.000  H 
  C23      1.0000 0.40270  0.30708  0.57190  Biso   1.000  C 
  H16      1.0000 0.44750  0.31820  0.63370  Biso   1.000  H 
  C24      1.0000 0.37020  0.45292  0.41780  Biso   1.000  C 
  H17      1.0000 0.36390  0.43730  0.33250  Biso   1.000  H 
  C25      1.0000 0.38090  0.51423  0.43500  Biso   1.000  C 
  H18      1.0000 0.38230  0.53980  0.36140  Biso   1.000  H 
  H19      1.0000 0.26560  0.79890  0.79630  Biso   1.000  H 
  H20      1.0000 0.31930  0.79960  0.66060  Biso   1.000  H 
  H21      1.0000 0.40470  0.79260  0.91140  Biso   1.000  H 
  H22      1.0000 0.40050  0.87390  0.00360  Biso   1.000  H 
  C26      1.0000 0.38090  0.98577  0.06500  Biso   1.000  C 
  H23      1.0000 0.38230  0.96020  0.13860  Biso   1.000  H 
  C27      1.0000 0.37020  0.04708  0.08220  Biso   1.000  C 
  H24      1.0000 0.36390  0.06270  0.16750  Biso   1.000  H 
  H25      1.0000 0.39230  0.98420  0.75090  Biso   1.000  H 
  C28      1.0000 0.40270  0.19292  0.92810  Biso   1.000  C 
  H26      1.0000 0.44750  0.18180  0.86630  Biso   1.000  H 
  C29      1.0000 0.38510  0.25226  0.95100  Biso   1.000  C 
  H27      1.0000 0.41780  0.28220  0.90580  Biso   1.000  H 
  C30      1.0000 0.31970  0.26740  0.04010  Biso   1.000  C 
  H28      1.0000 0.30740  0.30830  0.05520  Biso   1.000  H 
  Cl1      1.0000 0.10575  0.16920  0.30870  Biso   1.000  Cl
  Cl2      1.0000 0.10575  0.33080  0.19130  Biso   1.000  Cl
