data_image0
_cell_length_a       11.1991
_cell_length_b       25.381
_cell_length_c       10.6615
_cell_angle_alpha    90
_cell_angle_beta     115.925
_cell_angle_gamma    90

_symmetry_space_group_name_H-M    "P 1"
_symmetry_int_tables_number       1

loop_
  _symmetry_equiv_pos_as_xyz
  'x, y, z'

loop_
  _atom_site_label
  _atom_site_occupancy
  _atom_site_fract_x
  _atom_site_fract_y
  _atom_site_fract_z
  _atom_site_thermal_displace_type
  _atom_site_B_iso_or_equiv
  _atom_site_type_symbol
  Au1      1.0000 0.77990  0.31980  0.47880  Biso   1.000  Au
  Au2      1.0000 0.50000  0.36901  0.25000  Biso   1.000  Au
  C1       1.0000 0.52400  0.37010  0.07690  Biso   1.000  C 
  N1       1.0000 0.53340  0.37120  0.97540  Biso   1.000  N 
  Mn1      1.0000 0.50000  0.36876  0.75000  Biso   1.000  Mn
  N2       1.0000 0.46660  0.37120  0.52460  Biso   1.000  N 
  C2       1.0000 0.47600  0.37010  0.42310  Biso   1.000  C 
  N3       1.0000 0.29090  0.33750  0.68900  Biso   1.000  N 
  C3       1.0000 0.18920  0.37710  0.65940  Biso   1.000  C 
  H1       1.0000 0.14230  0.38270  0.55950  Biso   1.000  H 
  H2       1.0000 0.12560  0.36520  0.69240  Biso   1.000  H 
  C4       1.0000 0.25270  0.42840  0.73150  Biso   1.000  C 
  H3       1.0000 0.18780  0.45660  0.69790  Biso   1.000  H 
  H4       1.0000 0.28220  0.42490  0.83120  Biso   1.000  H 
  N4       1.0000 0.36190  0.44070  0.70410  Biso   1.000  N 
  H5       1.0000 0.32500  0.44340  0.60950  Biso   1.000  H 
  C5       1.0000 0.43450  0.48830  0.74960  Biso   1.000  C 
  C6       1.0000 0.56550  0.48830  0.75040  Biso   1.000  C 
  H6       1.0000 0.55440  0.49590  0.65670  Biso   1.000  H 
  H7       1.0000 0.61760  0.51670  0.81030  Biso   1.000  H 
  N5       1.0000 0.63810  0.44070  0.79590  Biso   1.000  N 
  C7       1.0000 0.74730  0.42840  0.76850  Biso   1.000  C 
  H8       1.0000 0.71780  0.42490  0.66880  Biso   1.000  H 
  H9       1.0000 0.81220  0.45660  0.80210  Biso   1.000  H 
  C8       1.0000 0.81080  0.37710  0.84060  Biso   1.000  C 
  H10      1.0000 0.85770  0.38270  0.94050  Biso   1.000  H 
  H11      1.0000 0.87440  0.36520  0.80760  Biso   1.000  H 
  N6       1.0000 0.70910  0.33750  0.81100  Biso   1.000  N 
  C9       1.0000 0.73150  0.28830  0.81920  Biso   1.000  C 
  C10      1.0000 0.86650  0.26310  0.86780  Biso   1.000  C 
  H12      1.0000 0.86010  0.23300  0.81060  Biso   1.000  H 
  H13      1.0000 0.92750  0.28810  0.86060  Biso   1.000  H 
  H14      1.0000 0.89780  0.25220  0.96310  Biso   1.000  H 
  C11      1.0000 0.61360  0.25390  0.78390  Biso   1.000  C 
  C12      1.0000 0.61610  0.19930  0.78410  Biso   1.000  C 
  C13      1.0000 0.50000  0.17160  0.75000  Biso   1.000  C 
  H15      1.0000 0.50000  0.13500  0.75000  Biso   1.000  H 
  C14      1.0000 0.38390  0.19930  0.71590  Biso   1.000  C 
  H16      1.0000 0.30450  0.18140  0.69300  Biso   1.000  H 
  C15      1.0000 0.38640  0.25390  0.71610  Biso   1.000  C 
  C16      1.0000 0.26850  0.28830  0.68080  Biso   1.000  C 
  C17      1.0000 0.13350  0.26310  0.63220  Biso   1.000  C 
  H17      1.0000 0.13990  0.23300  0.68940  Biso   1.000  H 
  H18      1.0000 0.10220  0.25220  0.53690  Biso   1.000  H 
  H19      1.0000 0.07250  0.28810  0.63940  Biso   1.000  H 
  N7       1.0000 0.50000  0.27960  0.75000  Biso   1.000  N 
  H20      1.0000 0.69550  0.18140  0.80700  Biso   1.000  H 
  H21      1.0000 0.67500  0.44340  0.89050  Biso   1.000  H 
  H22      1.0000 0.44560  0.49590  0.84330  Biso   1.000  H 
  H23      1.0000 0.38240  0.51670  0.68970  Biso   1.000  H 
  Au3      1.0000 0.22010  0.31980  0.02120  Biso   1.000  Au
  C18      1.0000 0.25000  0.25000  0.00000  Biso   1.000  C 
  Au4      1.0000 0.27990  0.18020  0.97880  Biso   1.000  Au
  C19      1.0000 0.34100  0.10660  0.96300  Biso   1.000  C 
  N8       1.0000 0.36900  0.06450  0.98800  Biso   1.000  N 
  Au5      1.0000 0.00000  0.13099  0.75000  Biso   1.000  Au
  C20      1.0000 0.97600  0.12990  0.92310  Biso   1.000  C 
  N9       1.0000 0.96660  0.12880  0.02460  Biso   1.000  N 
  Mn2      1.0000 0.00000  0.13124  0.25000  Biso   1.000  Mn
  N10      1.0000 0.79090  0.16250  0.18900  Biso   1.000  N 
  C21      1.0000 0.76850  0.21170  0.18080  Biso   1.000  C 
  C22      1.0000 0.63350  0.23690  0.13220  Biso   1.000  C 
  H24      1.0000 0.57250  0.21190  0.13940  Biso   1.000  H 
  H25      1.0000 0.60220  0.24780  0.03690  Biso   1.000  H 
  H26      1.0000 0.63990  0.26700  0.18940  Biso   1.000  H 
  C23      1.0000 0.88640  0.24610  0.21610  Biso   1.000  C 
  C24      1.0000 0.88390  0.30070  0.21590  Biso   1.000  C 
  C25      1.0000 0.00000  0.32840  0.25000  Biso   1.000  C 
  H27      1.0000 0.00000  0.36500  0.25000  Biso   1.000  H 
  C26      1.0000 0.11610  0.30070  0.28410  Biso   1.000  C 
  H28      1.0000 0.19550  0.31860  0.30700  Biso   1.000  H 
  C27      1.0000 0.11360  0.24610  0.28390  Biso   1.000  C 
  C28      1.0000 0.23150  0.21170  0.31920  Biso   1.000  C 
  C29      1.0000 0.36650  0.23690  0.36780  Biso   1.000  C 
  H29      1.0000 0.42750  0.21190  0.36060  Biso   1.000  H 
  H30      1.0000 0.39780  0.24780  0.46310  Biso   1.000  H 
  H31      1.0000 0.36010  0.26700  0.31060  Biso   1.000  H 
  N11      1.0000 0.20910  0.16250  0.31100  Biso   1.000  N 
  C30      1.0000 0.31080  0.12290  0.34060  Biso   1.000  C 
  C31      1.0000 0.24730  0.07160  0.26850  Biso   1.000  C 
  H32      1.0000 0.21780  0.07510  0.16880  Biso   1.000  H 
  H33      1.0000 0.31220  0.04340  0.30210  Biso   1.000  H 
  N12      1.0000 0.13810  0.05930  0.29590  Biso   1.000  N 
  C32      1.0000 0.06550  0.01170  0.25040  Biso   1.000  C 
  H34      1.0000 0.05440  0.00410  0.15670  Biso   1.000  H 
  C33      1.0000 0.93450  0.01170  0.24960  Biso   1.000  C 
  H35      1.0000 0.94560  0.00410  0.34330  Biso   1.000  H 
  N13      1.0000 0.86190  0.05930  0.20410  Biso   1.000  N 
  H36      1.0000 0.82500  0.05660  0.10950  Biso   1.000  H 
  C34      1.0000 0.75270  0.07160  0.23150  Biso   1.000  C 
  H37      1.0000 0.68780  0.04340  0.19790  Biso   1.000  H 
  H38      1.0000 0.78220  0.07510  0.33120  Biso   1.000  H 
  C35      1.0000 0.68920  0.12290  0.15940  Biso   1.000  C 
  H39      1.0000 0.64230  0.11730  0.05950  Biso   1.000  H 
  H40      1.0000 0.62560  0.13480  0.19240  Biso   1.000  H 
  H41      1.0000 0.88240  0.98330  0.18970  Biso   1.000  H 
  H42      1.0000 0.11760  0.98330  0.31030  Biso   1.000  H 
  H43      1.0000 0.17500  0.05660  0.39050  Biso   1.000  H 
  H44      1.0000 0.37440  0.13480  0.30760  Biso   1.000  H 
  H45      1.0000 0.35770  0.11730  0.44050  Biso   1.000  H 
  N14      1.0000 0.00000  0.22040  0.25000  Biso   1.000  N 
  H46      1.0000 0.80450  0.31860  0.19300  Biso   1.000  H 
  N15      1.0000 0.03340  0.12880  0.47540  Biso   1.000  N 
  C36      1.0000 0.02400  0.12990  0.57690  Biso   1.000  C 
  Au6      1.0000 0.72010  0.18020  0.52120  Biso   1.000  Au
  C37      1.0000 0.65900  0.10660  0.53700  Biso   1.000  C 
  N16      1.0000 0.63100  0.06450  0.51200  Biso   1.000  N 
  C38      1.0000 0.75000  0.25000  0.50000  Biso   1.000  C 
  C39      1.0000 0.15900  0.39340  0.03700  Biso   1.000  C 
  N17      1.0000 0.13100  0.43550  0.01200  Biso   1.000  N 
  C40      1.0000 0.84100  0.39340  0.46300  Biso   1.000  C 
  N18      1.0000 0.86900  0.43550  0.48800  Biso   1.000  N 
