data_image0
_cell_length_a       21.485
_cell_length_b       18.709
_cell_length_c       21.225
_cell_angle_alpha    90
_cell_angle_beta     118.707
_cell_angle_gamma    90

_symmetry_space_group_name_H-M    "P 1"
_symmetry_int_tables_number       1

loop_
  _symmetry_equiv_pos_as_xyz
  'x, y, z'

loop_
  _atom_site_label
  _atom_site_occupancy
  _atom_site_fract_x
  _atom_site_fract_y
  _atom_site_fract_z
  _atom_site_thermal_displace_type
  _atom_site_B_iso_or_equiv
  _atom_site_type_symbol
  C1       1.0000 0.62950  0.01720  0.03370  Biso   1.000  C 
  N1       1.0000 0.61180  0.08060  0.04590  Biso   1.000  N 
  Zn1      1.0000 0.64803  0.16811  0.01498  Biso   1.000  Zn
  N2       1.0000 0.73050  0.20640  0.10780  Biso   1.000  N 
  C2       1.0000 0.72570  0.21890  0.16750  Biso   1.000  C 
  H1       1.0000 0.68300  0.21050  0.16730  Biso   1.000  H 
  C3       1.0000 0.78220  0.24370  0.22860  Biso   1.000  C 
  H2       1.0000 0.77770  0.24950  0.26970  Biso   1.000  H 
  C4       1.0000 0.84590  0.26030  0.23130  Biso   1.000  C 
  C5       1.0000 0.85030  0.24800  0.16870  Biso   1.000  C 
  C6       1.0000 0.79260  0.22090  0.10910  Biso   1.000  C 
  H3       1.0000 0.79650  0.21230  0.06800  Biso   1.000  H 
  H4       1.0000 0.89200  0.25800  0.16730  Biso   1.000  H 
  C7       1.0000 0.90640  0.29050  0.29670  Biso   1.000  C 
  H5       1.0000 0.92380  0.25430  0.33400  Biso   1.000  H 
  H6       1.0000 0.94440  0.30160  0.28600  Biso   1.000  H 
  C8       1.0000 0.88960  0.35530  0.32490  Biso   1.000  C 
  H7       1.0000 0.85390  0.34310  0.33870  Biso   1.000  H 
  H8       1.0000 0.86860  0.38990  0.28630  Biso   1.000  H 
  C9       1.0000 0.95040  0.39010  0.38750  Biso   1.000  C 
  H9       1.0000 0.96980  0.35710  0.42760  Biso   1.000  H 
  H10      1.0000 0.98730  0.40080  0.37500  Biso   1.000  H 
  C10      1.0000 0.92880  0.45770  0.40970  Biso   1.000  C 
  C11      1.0000 0.94400  0.52350  0.39450  Biso   1.000  C 
  H11      1.0000 0.96820  0.52830  0.36820  Biso   1.000  H 
  C12      1.0000 0.92360  0.58410  0.41790  Biso   1.000  C 
  H12      1.0000 0.93540  0.62880  0.40760  Biso   1.000  H 
  N3       1.0000 0.88820  0.58060  0.45410  Biso   1.000  N 
  Zn2      1.0000 0.85197  0.66811  0.48502  Biso   1.000  Zn
  N4       1.0000 0.76950  0.70640  0.39220  Biso   1.000  N 
  C13      1.0000 0.77430  0.71890  0.33250  Biso   1.000  C 
  H13      1.0000 0.81700  0.71050  0.33270  Biso   1.000  H 
  C14      1.0000 0.71780  0.74370  0.27140  Biso   1.000  C 
  H14      1.0000 0.72230  0.74950  0.23030  Biso   1.000  H 
  C15      1.0000 0.65410  0.76030  0.26870  Biso   1.000  C 
  C16      1.0000 0.64970  0.74800  0.33130  Biso   1.000  C 
  H15      1.0000 0.60800  0.75800  0.33270  Biso   1.000  H 
  C17      1.0000 0.70740  0.72090  0.39090  Biso   1.000  C 
  H16      1.0000 0.70350  0.71230  0.43200  Biso   1.000  H 
  C18      1.0000 0.59360  0.79050  0.20330  Biso   1.000  C 
  H17      1.0000 0.57620  0.75430  0.16600  Biso   1.000  H 
  H18      1.0000 0.55560  0.80160  0.21400  Biso   1.000  H 
  C19      1.0000 0.61040  0.85530  0.17510  Biso   1.000  C 
  H19      1.0000 0.63140  0.88990  0.21370  Biso   1.000  H 
  H20      1.0000 0.64610  0.84310  0.16130  Biso   1.000  H 
  C20      1.0000 0.54960  0.89010  0.11250  Biso   1.000  C 
  H21      1.0000 0.53020  0.85710  0.07240  Biso   1.000  H 
  H22      1.0000 0.51270  0.90080  0.12500  Biso   1.000  H 
  C21      1.0000 0.57120  0.95770  0.09030  Biso   1.000  C 
  C22      1.0000 0.55600  0.02350  0.10550  Biso   1.000  C 
  H23      1.0000 0.53180  0.02830  0.13180  Biso   1.000  H 
  C23      1.0000 0.57640  0.08410  0.08210  Biso   1.000  C 
  H24      1.0000 0.56460  0.12880  0.09240  Biso   1.000  H 
  C24      1.0000 0.60990  0.95570  0.05440  Biso   1.000  C 
  H25      1.0000 0.62310  0.91170  0.04390  Biso   1.000  H 
  O1       1.0000 0.79553  0.62868  0.52670  Biso   1.000  O 
  C25      1.0000 0.82490  0.59730  0.58700  Biso   1.000  C 
  O2       1.0000 0.88970  0.58750  0.62280  Biso   1.000  O 
  C26      1.0000 0.77670  0.56960  0.61360  Biso   1.000  C 
  C27      1.0000 0.70570  0.58630  0.57810  Biso   1.000  C 
  H26      1.0000 0.68770  0.61520  0.53740  Biso   1.000  H 
  C28      1.0000 0.66060  0.56030  0.60260  Biso   1.000  C 
  H27      1.0000 0.61280  0.57230  0.57850  Biso   1.000  H 
  C29      1.0000 0.68640  0.51650  0.66250  Biso   1.000  C 
  N5       1.0000 0.63940  0.48940  0.68740  Biso   1.000  N 
  C30      1.0000 0.58980  0.43820  0.64570  Biso   1.000  C 
  C31      1.0000 0.53100  0.42450  0.65490  Biso   1.000  C 
  C32      1.0000 0.48350  0.37140  0.61430  Biso   1.000  C 
  C33      1.0000 0.49040  0.33320  0.56240  Biso   1.000  C 
  C34      1.0000 0.44220  0.27270  0.52340  Biso   1.000  C 
  O3       1.0000 0.44440  0.24490  0.47130  Biso   1.000  O 
  O4       1.0000 0.40130  0.25050  0.54500  Biso   1.000  O 
  Zn3      1.0000 0.35197  0.16811  0.48502  Biso   1.000  Zn
  N6       1.0000 0.38820  0.08060  0.45410  Biso   1.000  N 
  C35      1.0000 0.37050  0.01720  0.46630  Biso   1.000  C 
  H28      1.0000 0.34360  0.01380  0.48980  Biso   1.000  H 
  C36      1.0000 0.39010  0.95570  0.44560  Biso   1.000  C 
  H29      1.0000 0.37690  0.91170  0.45610  Biso   1.000  H 
  C37      1.0000 0.42880  0.95770  0.40970  Biso   1.000  C 
  C38      1.0000 0.45040  0.89010  0.38750  Biso   1.000  C 
  C39      1.0000 0.38960  0.85530  0.32490  Biso   1.000  C 
  H30      1.0000 0.35390  0.84310  0.33870  Biso   1.000  H 
  H31      1.0000 0.36860  0.88990  0.28630  Biso   1.000  H 
  C40      1.0000 0.40640  0.79050  0.29670  Biso   1.000  C 
  C41      1.0000 0.34590  0.76030  0.23130  Biso   1.000  C 
  C42      1.0000 0.28220  0.74370  0.22860  Biso   1.000  C 
  C43      1.0000 0.22570  0.71890  0.16750  Biso   1.000  C 
  H32      1.0000 0.18300  0.71050  0.16730  Biso   1.000  H 
  N7       1.0000 0.23050  0.70640  0.10780  Biso   1.000  N 
  Zn4      1.0000 0.14803  0.66811  0.01498  Biso   1.000  Zn
  N8       1.0000 0.11180  0.58060  0.04590  Biso   1.000  N 
  C44      1.0000 0.12950  0.51720  0.03370  Biso   1.000  C 
  C45      1.0000 0.10990  0.45570  0.05440  Biso   1.000  C 
  C46      1.0000 0.07120  0.45770  0.09030  Biso   1.000  C 
  C47      1.0000 0.04960  0.39010  0.11250  Biso   1.000  C 
  H33      1.0000 0.03020  0.35710  0.07240  Biso   1.000  H 
  H34      1.0000 0.01270  0.40080  0.12500  Biso   1.000  H 
  C48      1.0000 0.11040  0.35530  0.17510  Biso   1.000  C 
  C49      1.0000 0.09360  0.29050  0.20330  Biso   1.000  C 
  H35      1.0000 0.07620  0.25430  0.16600  Biso   1.000  H 
  C50      1.0000 0.15410  0.26030  0.26870  Biso   1.000  C 
  C51      1.0000 0.14970  0.24800  0.33130  Biso   1.000  C 
  H36      1.0000 0.10800  0.25800  0.33270  Biso   1.000  H 
  C52      1.0000 0.20740  0.22090  0.39090  Biso   1.000  C 
  H37      1.0000 0.20350  0.21230  0.43200  Biso   1.000  H 
  N9       1.0000 0.26950  0.20640  0.39220  Biso   1.000  N 
  C53      1.0000 0.27430  0.21890  0.33250  Biso   1.000  C 
  H38      1.0000 0.31700  0.21050  0.33270  Biso   1.000  H 
  C54      1.0000 0.21780  0.24370  0.27140  Biso   1.000  C 
  H39      1.0000 0.22230  0.24950  0.23030  Biso   1.000  H 
  H40      1.0000 0.05560  0.30160  0.21400  Biso   1.000  H 
  H41      1.0000 0.13140  0.38990  0.21370  Biso   1.000  H 
  H42      1.0000 0.14610  0.34310  0.16130  Biso   1.000  H 
  C55      1.0000 0.05600  0.52350  0.10550  Biso   1.000  C 
  C56      1.0000 0.07640  0.58410  0.08210  Biso   1.000  C 
  H43      1.0000 0.06460  0.62880  0.09240  Biso   1.000  H 
  H44      1.0000 0.03180  0.52830  0.13180  Biso   1.000  H 
  H45      1.0000 0.12310  0.41170  0.04390  Biso   1.000  H 
  H46      1.0000 0.15640  0.51380  0.01020  Biso   1.000  H 
  O5       1.0000 0.20447  0.62868  0.97330  Biso   1.000  O 
  C57      1.0000 0.17510  0.59730  0.91300  Biso   1.000  C 
  O6       1.0000 0.11030  0.58750  0.87720  Biso   1.000  O 
  C58      1.0000 0.22330  0.56960  0.88640  Biso   1.000  C 
  C59      1.0000 0.29430  0.58630  0.92190  Biso   1.000  C 
  H47      1.0000 0.31230  0.61520  0.96260  Biso   1.000  H 
  C60      1.0000 0.33940  0.56030  0.89740  Biso   1.000  C 
  H48      1.0000 0.38720  0.57230  0.92150  Biso   1.000  H 
  C61      1.0000 0.31360  0.51650  0.83750  Biso   1.000  C 
  C62      1.0000 0.24180  0.50070  0.80120  Biso   1.000  C 
  H49      1.0000 0.22370  0.47230  0.76020  Biso   1.000  H 
  C63      1.0000 0.19690  0.52680  0.82530  Biso   1.000  C 
  H50      1.0000 0.14880  0.51570  0.80070  Biso   1.000  H 
  N10      1.0000 0.36060  0.48940  0.81260  Biso   1.000  N 
  C64      1.0000 0.41020  0.43820  0.85430  Biso   1.000  C 
  C65      1.0000 0.40350  0.40020  0.90630  Biso   1.000  C 
  H51      1.0000 0.36500  0.40890  0.91390  Biso   1.000  H 
  C66      1.0000 0.45260  0.34970  0.94720  Biso   1.000  C 
  H52      1.0000 0.44700  0.32580  0.98260  Biso   1.000  H 
  C67      1.0000 0.50960  0.33320  0.93760  Biso   1.000  C 
  C68      1.0000 0.55780  0.27270  0.97660  Biso   1.000  C 
  O7       1.0000 0.59870  0.25050  0.95500  Biso   1.000  O 
  O8       1.0000 0.55560  0.24490  0.02870  Biso   1.000  O 
  C69      1.0000 0.51650  0.37140  0.88570  Biso   1.000  C 
  H53      1.0000 0.55440  0.36120  0.87760  Biso   1.000  H 
  C70      1.0000 0.46900  0.42450  0.84510  Biso   1.000  C 
  H54      1.0000 0.47640  0.45070  0.81210  Biso   1.000  H 
  C71      1.0000 0.34390  0.50590  0.74120  Biso   1.000  C 
  C72      1.0000 0.34420  0.45510  0.69420  Biso   1.000  C 
  C73      1.0000 0.32740  0.47270  0.62560  Biso   1.000  C 
  H55      1.0000 0.32840  0.43740  0.59530  Biso   1.000  H 
  C74      1.0000 0.30940  0.53930  0.60080  Biso   1.000  C 
  H56      1.0000 0.29830  0.55070  0.55400  Biso   1.000  H 
  C75      1.0000 0.30760  0.59050  0.64620  Biso   1.000  C 
  H57      1.0000 0.29510  0.63700  0.62960  Biso   1.000  H 
  C76      1.0000 0.32380  0.57450  0.71540  Biso   1.000  C 
  H58      1.0000 0.32130  0.60980  0.74500  Biso   1.000  H 
  H59      1.0000 0.35620  0.40820  0.70970  Biso   1.000  H 
  O9       1.0000 0.09870  0.75050  0.95500  Biso   1.000  O 
  C77      1.0000 0.05780  0.77270  0.97660  Biso   1.000  C 
  O10      1.0000 0.05560  0.74490  0.02870  Biso   1.000  O 
  C78      1.0000 0.00960  0.83320  0.93760  Biso   1.000  C 
  C79      1.0000 0.95260  0.84970  0.94720  Biso   1.000  C 
  H60      1.0000 0.94700  0.82580  0.98260  Biso   1.000  H 
  C80      1.0000 0.90350  0.90020  0.90630  Biso   1.000  C 
  H61      1.0000 0.86500  0.90890  0.91390  Biso   1.000  H 
  C81      1.0000 0.91020  0.93820  0.85430  Biso   1.000  C 
  N11      1.0000 0.86060  0.98940  0.81260  Biso   1.000  N 
  C82      1.0000 0.81360  0.01650  0.83750  Biso   1.000  C 
  C83      1.0000 0.74180  0.00070  0.80120  Biso   1.000  C 
  C84      1.0000 0.69690  0.02680  0.82530  Biso   1.000  C 
  H62      1.0000 0.64880  0.01570  0.80070  Biso   1.000  H 
  C85      1.0000 0.72330  0.06960  0.88640  Biso   1.000  C 
  C86      1.0000 0.67510  0.09730  0.91300  Biso   1.000  C 
  O11      1.0000 0.61030  0.08750  0.87720  Biso   1.000  O 
  O12      1.0000 0.70447  0.12868  0.97330  Biso   1.000  O 
  C87      1.0000 0.79430  0.08630  0.92190  Biso   1.000  C 
  H63      1.0000 0.81230  0.11520  0.96260  Biso   1.000  H 
  C88      1.0000 0.83940  0.06030  0.89740  Biso   1.000  C 
  H64      1.0000 0.88720  0.07230  0.92150  Biso   1.000  H 
  H65      1.0000 0.72370  0.97230  0.76020  Biso   1.000  H 
  C89      1.0000 0.84390  0.00590  0.74120  Biso   1.000  C 
  C90      1.0000 0.82380  0.07450  0.71540  Biso   1.000  C 
  H66      1.0000 0.82130  0.10980  0.74500  Biso   1.000  H 
  C91      1.0000 0.80760  0.09050  0.64620  Biso   1.000  C 
  C92      1.0000 0.80940  0.03930  0.60080  Biso   1.000  C 
  H67      1.0000 0.79830  0.05070  0.55400  Biso   1.000  H 
  C93      1.0000 0.82740  0.97270  0.62560  Biso   1.000  C 
  H68      1.0000 0.82840  0.93740  0.59530  Biso   1.000  H 
  C94      1.0000 0.84420  0.95510  0.69420  Biso   1.000  C 
  H69      1.0000 0.85620  0.90820  0.70970  Biso   1.000  H 
  H70      1.0000 0.79510  0.13700  0.62960  Biso   1.000  H 
  C95      1.0000 0.96900  0.92450  0.84510  Biso   1.000  C 
  H71      1.0000 0.97640  0.95070  0.81210  Biso   1.000  H 
  C96      1.0000 0.01650  0.87140  0.88570  Biso   1.000  C 
  H72      1.0000 0.05440  0.86120  0.87760  Biso   1.000  H 
  C97      1.0000 0.29260  0.72090  0.10910  Biso   1.000  C 
  H73      1.0000 0.29650  0.71230  0.06800  Biso   1.000  H 
  C98      1.0000 0.35030  0.74800  0.16870  Biso   1.000  C 
  H74      1.0000 0.39200  0.75800  0.16730  Biso   1.000  H 
  H75      1.0000 0.27770  0.74950  0.26970  Biso   1.000  H 
  H76      1.0000 0.42380  0.75430  0.33400  Biso   1.000  H 
  H77      1.0000 0.44440  0.80160  0.28600  Biso   1.000  H 
  H78      1.0000 0.48730  0.90080  0.37500  Biso   1.000  H 
  H79      1.0000 0.46980  0.85710  0.42760  Biso   1.000  H 
  C99      1.0000 0.44400  0.02350  0.39450  Biso   1.000  C 
  C100     1.0000 0.42360  0.08410  0.41790  Biso   1.000  C 
  H80      1.0000 0.43540  0.12880  0.40760  Biso   1.000  H 
  H81      1.0000 0.46820  0.02830  0.36820  Biso   1.000  H 
  O13      1.0000 0.29553  0.12868  0.52670  Biso   1.000  O 
  C101     1.0000 0.32490  0.09730  0.58700  Biso   1.000  C 
  O14      1.0000 0.38970  0.08750  0.62280  Biso   1.000  O 
  C102     1.0000 0.27670  0.06960  0.61360  Biso   1.000  C 
  C103     1.0000 0.20570  0.08630  0.57810  Biso   1.000  C 
  H82      1.0000 0.18770  0.11520  0.53740  Biso   1.000  H 
  C104     1.0000 0.16060  0.06030  0.60260  Biso   1.000  C 
  H83      1.0000 0.11280  0.07230  0.57850  Biso   1.000  H 
  C105     1.0000 0.18640  0.01650  0.66250  Biso   1.000  C 
  C106     1.0000 0.25820  0.00070  0.69880  Biso   1.000  C 
  C107     1.0000 0.30310  0.02680  0.67470  Biso   1.000  C 
  H84      1.0000 0.35120  0.01570  0.69930  Biso   1.000  H 
  H85      1.0000 0.27630  0.97230  0.73980  Biso   1.000  H 
  N12      1.0000 0.13940  0.98940  0.68740  Biso   1.000  N 
  C108     1.0000 0.15610  0.00590  0.75880  Biso   1.000  C 
  C109     1.0000 0.17620  0.07450  0.78460  Biso   1.000  C 
  H86      1.0000 0.17870  0.10980  0.75500  Biso   1.000  H 
  C110     1.0000 0.19240  0.09050  0.85380  Biso   1.000  C 
  H87      1.0000 0.20490  0.13700  0.87040  Biso   1.000  H 
  C111     1.0000 0.19060  0.03930  0.89920  Biso   1.000  C 
  H88      1.0000 0.20170  0.05070  0.94600  Biso   1.000  H 
  C112     1.0000 0.17260  0.97270  0.87440  Biso   1.000  C 
  H89      1.0000 0.17160  0.93740  0.90470  Biso   1.000  H 
  C113     1.0000 0.15580  0.95510  0.80580  Biso   1.000  C 
  H90      1.0000 0.14380  0.90820  0.79030  Biso   1.000  H 
  C114     1.0000 0.08980  0.93820  0.64570  Biso   1.000  C 
  C115     1.0000 0.09650  0.90020  0.59370  Biso   1.000  C 
  C116     1.0000 0.04740  0.84970  0.55280  Biso   1.000  C 
  H91      1.0000 0.05300  0.82580  0.51740  Biso   1.000  H 
  C117     1.0000 0.99040  0.83320  0.56240  Biso   1.000  C 
  C118     1.0000 0.94220  0.77270  0.52340  Biso   1.000  C 
  O15      1.0000 0.94440  0.74490  0.47130  Biso   1.000  O 
  O16      1.0000 0.90130  0.75050  0.54500  Biso   1.000  O 
  C119     1.0000 0.98350  0.87140  0.61430  Biso   1.000  C 
  H92      1.0000 0.94560  0.86120  0.62240  Biso   1.000  H 
  C120     1.0000 0.03100  0.92450  0.65490  Biso   1.000  C 
  H93      1.0000 0.02360  0.95070  0.68790  Biso   1.000  H 
  H94      1.0000 0.13500  0.90890  0.58610  Biso   1.000  H 
  C121     1.0000 0.54740  0.34970  0.55280  Biso   1.000  C 
  H95      1.0000 0.55300  0.32580  0.51740  Biso   1.000  H 
  C122     1.0000 0.59650  0.40020  0.59370  Biso   1.000  C 
  H96      1.0000 0.63500  0.40890  0.58610  Biso   1.000  H 
  H97      1.0000 0.44560  0.36120  0.62240  Biso   1.000  H 
  H98      1.0000 0.52360  0.45070  0.68790  Biso   1.000  H 
  C123     1.0000 0.65610  0.50590  0.75880  Biso   1.000  C 
  C124     1.0000 0.65580  0.45510  0.80580  Biso   1.000  C 
  C125     1.0000 0.67260  0.47270  0.87440  Biso   1.000  C 
  H99      1.0000 0.67160  0.43740  0.90470  Biso   1.000  H 
  C126     1.0000 0.69060  0.53930  0.89920  Biso   1.000  C 
  H100     1.0000 0.70170  0.55070  0.94600  Biso   1.000  H 
  C127     1.0000 0.69240  0.59050  0.85380  Biso   1.000  C 
  H101     1.0000 0.70490  0.63700  0.87040  Biso   1.000  H 
  C128     1.0000 0.67620  0.57450  0.78460  Biso   1.000  C 
  H102     1.0000 0.67870  0.60980  0.75500  Biso   1.000  H 
  H103     1.0000 0.64380  0.40820  0.79030  Biso   1.000  H 
  C129     1.0000 0.75820  0.50070  0.69880  Biso   1.000  C 
  H104     1.0000 0.77630  0.47230  0.73980  Biso   1.000  H 
  C130     1.0000 0.80310  0.52680  0.67470  Biso   1.000  C 
  H105     1.0000 0.85120  0.51570  0.69930  Biso   1.000  H 
  C131     1.0000 0.87050  0.51720  0.46630  Biso   1.000  C 
  H106     1.0000 0.84360  0.51380  0.48980  Biso   1.000  H 
  C132     1.0000 0.89010  0.45570  0.44560  Biso   1.000  C 
  H107     1.0000 0.87690  0.41170  0.45610  Biso   1.000  H 
  H108     1.0000 0.65640  0.01380  0.01020  Biso   1.000  H 
