data_image0
_cell_length_a       14.3887
_cell_length_b       15.538
_cell_length_c       17.003
_cell_angle_alpha    87.718
_cell_angle_beta     65.714
_cell_angle_gamma    76.845

_symmetry_space_group_name_H-M    "P 1"
_symmetry_int_tables_number       1

loop_
  _symmetry_equiv_pos_as_xyz
  'x, y, z'

loop_
  _atom_site_label
  _atom_site_occupancy
  _atom_site_fract_x
  _atom_site_fract_y
  _atom_site_fract_z
  _atom_site_thermal_displace_type
  _atom_site_B_iso_or_equiv
  _atom_site_type_symbol
  C1       1.0000 0.16640  0.80230  0.18940  Biso   1.000  C 
  C2       1.0000 0.04620  0.84180  0.23160  Biso   1.000  C 
  C3       1.0000 0.00930  0.93010  0.23510  Biso   1.000  C 
  H1       1.0000 0.05600  0.96670  0.21440  Biso   1.000  H 
  C4       1.0000 0.90200  0.96700  0.26930  Biso   1.000  C 
  C5       1.0000 0.83250  0.91230  0.30270  Biso   1.000  C 
  N1       1.0000 0.72190  0.94910  0.33550  Biso   1.000  N 
  C6       1.0000 0.67860  0.02760  0.39110  Biso   1.000  C 
  C7       1.0000 0.71980  0.03790  0.44940  Biso   1.000  C 
  C8       1.0000 0.68690  0.11350  0.50010  Biso   1.000  C 
  H2       1.0000 0.71710  0.11910  0.53810  Biso   1.000  H 
  C9       1.0000 0.60990  0.18160  0.49620  Biso   1.000  C 
  C10      1.0000 0.56670  0.17160  0.44010  Biso   1.000  C 
  C11      1.0000 0.59950  0.09520  0.38650  Biso   1.000  C 
  H3       1.0000 0.56930  0.08960  0.34860  Biso   1.000  H 
  H4       1.0000 0.51370  0.21720  0.43750  Biso   1.000  H 
  H5       1.0000 0.58760  0.23340  0.53100  Biso   1.000  H 
  H6       1.0000 0.77120  0.99210  0.45410  Biso   1.000  H 
  C12      1.0000 0.66850  0.92220  0.29020  Biso   1.000  C 
  C13      1.0000 0.71980  0.90260  0.20190  Biso   1.000  C 
  C14      1.0000 0.67210  0.87420  0.15660  Biso   1.000  C 
  C15      1.0000 0.57120  0.86560  0.19600  Biso   1.000  C 
  C16      1.0000 0.52290  0.83230  0.14390  Biso   1.000  C 
  O1       1.0000 0.42570  0.83230  0.18190  Biso   1.000  O 
  Zn1      1.0000 0.36966  0.78176  0.11106  Biso   1.000  Zn
  N2       1.0000 0.41090  0.81850  0.98620  Biso   1.000  N 
  C17      1.0000 0.49590  0.84460  0.93600  Biso   1.000  C 
  N3       1.0000 0.50590  0.85040  0.85410  Biso   1.000  N 
  C18      1.0000 0.42150  0.82510  0.85220  Biso   1.000  C 
  H7       1.0000 0.40730  0.82120  0.80390  Biso   1.000  H 
  C19      1.0000 0.36320  0.80690  0.93320  Biso   1.000  C 
  H8       1.0000 0.30040  0.78930  0.95060  Biso   1.000  H 
  C20      1.0000 0.59040  0.87500  0.78320  Biso   1.000  C 
  C21      1.0000 0.63070  0.82990  0.70410  Biso   1.000  C 
  H9       1.0000 0.60260  0.78460  0.69580  Biso   1.000  H 
  C22      1.0000 0.71400  0.85340  0.63710  Biso   1.000  C 
  H10      1.0000 0.74050  0.82550  0.58230  Biso   1.000  H 
  C23      1.0000 0.75740  0.91790  0.65130  Biso   1.000  C 
  O2       1.0000 0.83900  0.94520  0.58240  Biso   1.000  O 
  C24      1.0000 0.93410  0.88420  0.54160  Biso   1.000  C 
  C25      1.0000 0.96850  0.81440  0.58210  Biso   1.000  C 
  H11      1.0000 0.92760  0.80570  0.63920  Biso   1.000  H 
  C26      1.0000 0.06450  0.75710  0.53740  Biso   1.000  C 
  C27      1.0000 0.12570  0.77090  0.45380  Biso   1.000  C 
  N4       1.0000 0.22190  0.70900  0.40730  Biso   1.000  N 
  C28      1.0000 0.31330  0.72720  0.34460  Biso   1.000  C 
  C29      1.0000 0.38160  0.64800  0.31840  Biso   1.000  C 
  H12      1.0000 0.45020  0.64010  0.27710  Biso   1.000  H 
  N5       1.0000 0.33770  0.58040  0.36010  Biso   1.000  N 
  Zn2      1.0000 0.39695  0.44596  0.34144  Biso   1.000  Zn
  C30      1.0000 0.59290  0.37380  0.27510  Biso   1.000  C 
  O3       1.0000 0.54030  0.31690  0.29720  Biso   1.000  O 
  O4       1.0000 0.55190  0.45500  0.28290  Biso   1.000  O 
  C31      1.0000 0.71080  0.34640  0.23840  Biso   1.000  C 
  C32      1.0000 0.75790  0.26050  0.24240  Biso   1.000  C 
  H13      1.0000 0.71680  0.22020  0.26770  Biso   1.000  H 
  C33      1.0000 0.86370  0.23320  0.21000  Biso   1.000  C 
  H14      1.0000 0.89410  0.17420  0.21280  Biso   1.000  H 
  C34      1.0000 0.92760  0.29170  0.17280  Biso   1.000  C 
  C35      1.0000 0.88070  0.37750  0.16910  Biso   1.000  C 
  H15      1.0000 0.92190  0.41770  0.14380  Biso   1.000  H 
  C36      1.0000 0.77350  0.40550  0.20240  Biso   1.000  C 
  H16      1.0000 0.74290  0.46470  0.20070  Biso   1.000  H 
  N6       1.0000 0.03900  0.26170  0.13910  Biso   1.000  N 
  C37      1.0000 0.09290  0.29840  0.17670  Biso   1.000  C 
  C38      1.0000 0.20000  0.29200  0.13470  Biso   1.000  C 
  H17      1.0000 0.23770  0.26430  0.07960  Biso   1.000  H 
  C39      1.0000 0.25030  0.32670  0.17480  Biso   1.000  C 
  H18      1.0000 0.32220  0.32150  0.14630  Biso   1.000  H 
  C40      1.0000 0.19670  0.36910  0.25660  Biso   1.000  C 
  C41      1.0000 0.09060  0.37530  0.29670  Biso   1.000  C 
  C42      1.0000 0.03880  0.34150  0.25770  Biso   1.000  C 
  H19      1.0000 0.96670  0.34760  0.28600  Biso   1.000  H 
  H20      1.0000 0.05290  0.40320  0.35170  Biso   1.000  H 
  C43      1.0000 0.25130  0.40270  0.30280  Biso   1.000  C 
  O5       1.0000 0.34850  0.39830  0.26270  Biso   1.000  O 
  O6       1.0000 0.20100  0.43460  0.37870  Biso   1.000  O 
  C44      1.0000 0.08260  0.17940  0.09130  Biso   1.000  C 
  C45      1.0000 0.04690  0.16250  0.03090  Biso   1.000  C 
  H21      1.0000 0.00060  0.20730  0.01850  Biso   1.000  H 
  C46      1.0000 0.07940  0.07910  0.98830  Biso   1.000  C 
  H22      1.0000 0.05260  0.06700  0.94970  Biso   1.000  H 
  C47      1.0000 0.15130  0.01580  0.00430  Biso   1.000  C 
  C48      1.0000 0.19050  0.03290  0.06150  Biso   1.000  C 
  C49      1.0000 0.15610  0.11340  0.10590  Biso   1.000  C 
  H23      1.0000 0.18170  0.12410  0.14580  Biso   1.000  H 
  H24      1.0000 0.24110  0.98930  0.07020  Biso   1.000  H 
  H25      1.0000 0.17400  0.96000  0.97600  Biso   1.000  H 
  N7       1.0000 0.37080  0.41430  0.46500  Biso   1.000  N 
  C50      1.0000 0.44010  0.41470  0.49940  Biso   1.000  C 
  C51      1.0000 0.39610  0.40690  0.58590  Biso   1.000  C 
  N8       1.0000 0.29630  0.39930  0.60530  Biso   1.000  N 
  C52      1.0000 0.28510  0.40290  0.53050  Biso   1.000  C 
  H26      1.0000 0.22460  0.39790  0.52540  Biso   1.000  H 
  C53      1.0000 0.21840  0.39120  0.68950  Biso   1.000  C 
  C54      1.0000 0.24860  0.34310  0.74910  Biso   1.000  C 
  C55      1.0000 0.17360  0.33880  0.83090  Biso   1.000  C 
  C56      1.0000 0.06940  0.38030  0.85370  Biso   1.000  C 
  O7       1.0000 0.00100  0.36990  0.93630  Biso   1.000  O 
  C57      1.0000 0.89640  0.41370  0.96450  Biso   1.000  C 
  C58      1.0000 0.82470  0.36580  0.97210  Biso   1.000  C 
  H27      1.0000 0.84640  0.30570  0.95540  Biso   1.000  H 
  C59      1.0000 0.71920  0.40780  0.00480  Biso   1.000  C 
  C60      1.0000 0.68790  0.49550  0.03050  Biso   1.000  C 
  N9       1.0000 0.57910  0.54000  0.06320  Biso   1.000  N 
  C61      1.0000 0.49230  0.50570  0.11000  Biso   1.000  C 
  C62      1.0000 0.40780  0.57450  0.12880  Biso   1.000  C 
  H28      1.0000 0.33840  0.57110  0.15960  Biso   1.000  H 
  N10      1.0000 0.44050  0.65050  0.09510  Biso   1.000  N 
  C63      1.0000 0.54380  0.62680  0.05650  Biso   1.000  C 
  H29      1.0000 0.58670  0.66510  0.02830  Biso   1.000  H 
  H30      1.0000 0.49210  0.44760  0.12540  Biso   1.000  H 
  C64      1.0000 0.76080  0.54300  0.02390  Biso   1.000  C 
  H31      1.0000 0.73920  0.60250  0.04270  Biso   1.000  H 
  C65      1.0000 0.86570  0.50160  0.98920  Biso   1.000  C 
  H32      1.0000 0.91550  0.53360  0.98260  Biso   1.000  H 
  H33      1.0000 0.66980  0.37610  0.00910  Biso   1.000  H 
  C66      1.0000 0.04030  0.42510  0.79260  Biso   1.000  C 
  C67      1.0000 0.11530  0.43100  0.71070  Biso   1.000  C 
  H34      1.0000 0.09570  0.46210  0.67000  Biso   1.000  H 
  H35      1.0000 0.97010  0.45140  0.80650  Biso   1.000  H 
  H36      1.0000 0.19320  0.30740  0.87150  Biso   1.000  H 
  H37      1.0000 0.31830  0.31440  0.73410  Biso   1.000  H 
  H38      1.0000 0.42730  0.40680  0.62410  Biso   1.000  H 
  H39      1.0000 0.50870  0.41970  0.46800  Biso   1.000  H 
  C68      1.0000 0.24120  0.62170  0.41360  Biso   1.000  C 
  H40      1.0000 0.19230  0.59260  0.45160  Biso   1.000  H 
  H41      1.0000 0.32480  0.78220  0.32510  Biso   1.000  H 
  C69      1.0000 0.09190  0.84310  0.41610  Biso   1.000  C 
  H42      1.0000 0.13450  0.85400  0.36010  Biso   1.000  H 
  C70      1.0000 0.99630  0.89990  0.45910  Biso   1.000  C 
  H43      1.0000 0.97400  0.94860  0.43240  Biso   1.000  H 
  H44      1.0000 0.08760  0.70880  0.56420  Biso   1.000  H 
  C71      1.0000 0.71670  0.96290  0.72900  Biso   1.000  C 
  H45      1.0000 0.74520  0.00810  0.73700  Biso   1.000  H 
  C72      1.0000 0.63250  0.94120  0.79630  Biso   1.000  C 
  H46      1.0000 0.60440  0.97120  0.85030  Biso   1.000  H 
  H47      1.0000 0.54350  0.85760  0.95500  Biso   1.000  H 
  O8       1.0000 0.22150  0.84850  0.16830  Biso   1.000  O 
  O9       1.0000 0.57970  0.80630  0.06770  Biso   1.000  O 
  C73      1.0000 0.51860  0.88710  0.28450  Biso   1.000  C 
  H48      1.0000 0.44940  0.88240  0.31280  Biso   1.000  H 
  C74      1.0000 0.56550  0.91490  0.33130  Biso   1.000  C 
  H49      1.0000 0.52840  0.92880  0.39040  Biso   1.000  H 
  H50      1.0000 0.70930  0.86030  0.09750  Biso   1.000  H 
  H51      1.0000 0.78830  0.90890  0.17290  Biso   1.000  H 
  C75      1.0000 0.86950  0.82490  0.30220  Biso   1.000  C 
  H52      1.0000 0.82270  0.78850  0.32540  Biso   1.000  H 
  C76      1.0000 0.97500  0.78830  0.26820  Biso   1.000  C 
  H53      1.0000 0.99930  0.72760  0.26940  Biso   1.000  H 
  H54      1.0000 0.87710  0.02780  0.26980  Biso   1.000  H 
  O10      1.0000 0.19260  0.71910  0.19850  Biso   1.000  O 
