data_image0
_cell_length_a       10.639
_cell_length_b       13.019
_cell_length_c       13.141
_cell_angle_alpha    90
_cell_angle_beta     102.691
_cell_angle_gamma    90

_symmetry_space_group_name_H-M    "P 1"
_symmetry_int_tables_number       1

loop_
  _symmetry_equiv_pos_as_xyz
  'x, y, z'

loop_
  _atom_site_label
  _atom_site_occupancy
  _atom_site_fract_x
  _atom_site_fract_y
  _atom_site_fract_z
  _atom_site_thermal_displace_type
  _atom_site_B_iso_or_equiv
  _atom_site_type_symbol
  Ag1      1.0000 0.75732  0.57676  0.67363  Biso   1.000  Ag
  N1       1.0000 0.89730  0.45690  0.64100  Biso   1.000  N 
  C1       1.0000 0.86430  0.34950  0.65440  Biso   1.000  C 
  C2       1.0000 0.74890  0.34450  0.69650  Biso   1.000  C 
  N2       1.0000 0.67880  0.42110  0.71130  Biso   1.000  N 
  N3       1.0000 0.57140  0.39570  0.74350  Biso   1.000  N 
  C3       1.0000 0.49950  0.46970  0.76600  Biso   1.000  C 
  C4       1.0000 0.38570  0.45100  0.80490  Biso   1.000  C 
  N4       1.0000 0.33820  0.34710  0.80860  Biso   1.000  N 
  Ag2      1.0000 0.47035  0.23383  0.74753  Biso   1.000  Ag
  N5       1.0000 0.37360  0.14900  0.58250  Biso   1.000  N 
  C5       1.0000 0.38620  0.05150  0.59540  Biso   1.000  C 
  H1       1.0000 0.36430  0.00870  0.53760  Biso   1.000  H 
  C6       1.0000 0.43010  0.00920  0.69000  Biso   1.000  C 
  N6       1.0000 0.49100  0.06070  0.78540  Biso   1.000  N 
  C7       1.0000 0.55120  0.02300  0.87710  Biso   1.000  C 
  H2       1.0000 0.59620  0.06680  0.92820  Biso   1.000  H 
  C8       1.0000 0.54720  0.91730  0.89710  Biso   1.000  C 
  H3       1.0000 0.57800  0.89060  0.96350  Biso   1.000  H 
  C9       1.0000 0.49090  0.84950  0.80620  Biso   1.000  C 
  H4       1.0000 0.48180  0.77920  0.81440  Biso   1.000  H 
  C10      1.0000 0.45370  0.89550  0.71080  Biso   1.000  C 
  H5       1.0000 0.44160  0.85270  0.65280  Biso   1.000  H 
  N7       1.0000 0.32260  0.17660  0.47880  Biso   1.000  N 
  Ag3      1.0000 0.24268  0.07676  0.32637  Biso   1.000  Ag
  N8       1.0000 0.22530  0.24410  0.29110  Biso   1.000  N 
  C11      1.0000 0.16780  0.27430  0.18830  Biso   1.000  C 
  H6       1.0000 0.13610  0.22720  0.13570  Biso   1.000  H 
  C12      1.0000 0.16160  0.38700  0.17060  Biso   1.000  C 
  H7       1.0000 0.13890  0.41220  0.10280  Biso   1.000  H 
  C13      1.0000 0.18770  0.45190  0.24940  Biso   1.000  C 
  C14      1.0000 0.26090  0.42290  0.34360  Biso   1.000  C 
  C15      1.0000 0.27160  0.31390  0.36090  Biso   1.000  C 
  C16      1.0000 0.31760  0.27320  0.46340  Biso   1.000  C 
  H8       1.0000 0.34410  0.31780  0.51940  Biso   1.000  H 
  H9       1.0000 0.30100  0.47020  0.39320  Biso   1.000  H 
  H10      1.0000 0.15570  0.51850  0.24060  Biso   1.000  H 
  N9       1.0000 0.10270  0.95690  0.35900  Biso   1.000  N 
  C17      1.0000 0.13570  0.84950  0.34560  Biso   1.000  C 
  C18      1.0000 0.25110  0.84450  0.30350  Biso   1.000  C 
  N10      1.0000 0.32120  0.92110  0.28870  Biso   1.000  N 
  N11      1.0000 0.42860  0.89570  0.25650  Biso   1.000  N 
  C19      1.0000 0.50050  0.96970  0.23400  Biso   1.000  C 
  C20      1.0000 0.61430  0.95100  0.19510  Biso   1.000  C 
  N12      1.0000 0.66180  0.84710  0.19140  Biso   1.000  N 
  Ag4      1.0000 0.52965  0.73383  0.25247  Biso   1.000  Ag
  N13      1.0000 0.50900  0.56070  0.21460  Biso   1.000  N 
  C21      1.0000 0.56990  0.50920  0.31000  Biso   1.000  C 
  C22      1.0000 0.54630  0.39550  0.28920  Biso   1.000  C 
  C23      1.0000 0.50910  0.34950  0.19380  Biso   1.000  C 
  H11      1.0000 0.51820  0.27920  0.18560  Biso   1.000  H 
  C24      1.0000 0.45280  0.41730  0.10290  Biso   1.000  C 
  H12      1.0000 0.42200  0.39060  0.03650  Biso   1.000  H 
  C25      1.0000 0.44880  0.52300  0.12290  Biso   1.000  C 
  H13      1.0000 0.40380  0.56680  0.07180  Biso   1.000  H 
  H14      1.0000 0.55840  0.35270  0.34720  Biso   1.000  H 
  C26      1.0000 0.61380  0.55150  0.40460  Biso   1.000  C 
  H15      1.0000 0.63570  0.50870  0.46240  Biso   1.000  H 
  N14      1.0000 0.62640  0.64900  0.41750  Biso   1.000  N 
  N15      1.0000 0.67740  0.67660  0.52120  Biso   1.000  N 
  C27      1.0000 0.68240  0.77320  0.53660  Biso   1.000  C 
  H16      1.0000 0.65590  0.81780  0.48060  Biso   1.000  H 
  C28      1.0000 0.72840  0.81390  0.63910  Biso   1.000  C 
  N16      1.0000 0.77470  0.74410  0.70890  Biso   1.000  N 
  C29      1.0000 0.83220  0.77430  0.81170  Biso   1.000  C 
  H17      1.0000 0.86390  0.72720  0.86430  Biso   1.000  H 
  C30      1.0000 0.83840  0.88700  0.82940  Biso   1.000  C 
  C31      1.0000 0.81230  0.95190  0.75060  Biso   1.000  C 
  C32      1.0000 0.73910  0.92290  0.65640  Biso   1.000  C 
  H18      1.0000 0.69900  0.97020  0.60680  Biso   1.000  H 
  H19      1.0000 0.84430  0.01850  0.75940  Biso   1.000  H 
  H20      1.0000 0.86110  0.91220  0.89720  Biso   1.000  H 
  C33      1.0000 0.76850  0.84590  0.15820  Biso   1.000  C 
  H21      1.0000 0.80440  0.78140  0.15310  Biso   1.000  H 
  C34      1.0000 0.83110  0.92280  0.13130  Biso   1.000  C 
  H22      1.0000 0.90800  0.91100  0.11060  Biso   1.000  H 
  C35      1.0000 0.78740  0.01910  0.13260  Biso   1.000  C 
  H23      1.0000 0.83170  0.07300  0.11010  Biso   1.000  H 
  C36      1.0000 0.68330  0.03670  0.16530  Biso   1.000  C 
  H24      1.0000 0.65370  0.10340  0.16940  Biso   1.000  H 
  H25      1.0000 0.47700  0.03730  0.24350  Biso   1.000  H 
  H26      1.0000 0.27650  0.77980  0.28560  Biso   1.000  H 
  C37      1.0000 0.06390  0.77190  0.36220  Biso   1.000  C 
  H27      1.0000 0.08620  0.70410  0.35230  Biso   1.000  H 
  C38      1.0000 0.95340  0.79690  0.39530  Biso   1.000  C 
  H28      1.0000 0.90260  0.74060  0.40360  Biso   1.000  H 
  C39      1.0000 0.90440  0.88990  0.41840  Biso   1.000  C 
  H29      1.0000 0.83000  0.90240  0.44270  Biso   1.000  H 
  C40      1.0000 0.99550  0.96280  0.39600  Biso   1.000  C 
  H30      1.0000 0.97530  0.02990  0.41070  Biso   1.000  H 
  C41      1.0000 0.23150  0.34590  0.84180  Biso   1.000  C 
  H31      1.0000 0.19560  0.28140  0.84690  Biso   1.000  H 
  C42      1.0000 0.16890  0.42280  0.86870  Biso   1.000  C 
  H32      1.0000 0.09200  0.41100  0.88940  Biso   1.000  H 
  C43      1.0000 0.21260  0.51910  0.86740  Biso   1.000  C 
  H33      1.0000 0.16830  0.57300  0.88990  Biso   1.000  H 
  C44      1.0000 0.31670  0.53670  0.83470  Biso   1.000  C 
  H34      1.0000 0.34630  0.60340  0.83060  Biso   1.000  H 
  H35      1.0000 0.52300  0.53730  0.75650  Biso   1.000  H 
  H36      1.0000 0.72350  0.27980  0.71440  Biso   1.000  H 
  C45      1.0000 0.93610  0.27190  0.63780  Biso   1.000  C 
  H37      1.0000 0.91380  0.20410  0.64770  Biso   1.000  H 
  C46      1.0000 0.04660  0.29690  0.60470  Biso   1.000  C 
  H38      1.0000 0.09740  0.24060  0.59640  Biso   1.000  H 
  C47      1.0000 0.09560  0.38990  0.58160  Biso   1.000  C 
  H39      1.0000 0.17000  0.40240  0.55730  Biso   1.000  H 
  C48      1.0000 0.00450  0.46280  0.60400  Biso   1.000  C 
  H40      1.0000 0.02470  0.52990  0.58930  Biso   1.000  H 
