data_image0
_cell_length_a       17.0104
_cell_length_b       23.148
_cell_length_c       10.6403
_cell_angle_alpha    90
_cell_angle_beta     110.91
_cell_angle_gamma    90

_symmetry_space_group_name_H-M    "P 1"
_symmetry_int_tables_number       1

loop_
  _symmetry_equiv_pos_as_xyz
  'x, y, z'

loop_
  _atom_site_label
  _atom_site_occupancy
  _atom_site_fract_x
  _atom_site_fract_y
  _atom_site_fract_z
  _atom_site_thermal_displace_type
  _atom_site_B_iso_or_equiv
  _atom_site_type_symbol
  Cd1      1.0000 0.14097  0.13917  0.80807  Biso   1.000  Cd
  S1       1.0000 0.02923  0.13487  0.56440  Biso   1.000  S 
  C1       1.0000 0.98230  0.20040  0.55990  Biso   1.000  C 
  N1       1.0000 0.99710  0.25190  0.51060  Biso   1.000  N 
  N2       1.0000 0.94390  0.29220  0.53000  Biso   1.000  N 
  N3       1.0000 0.90070  0.26640  0.59170  Biso   1.000  N 
  N4       1.0000 0.92200  0.21060  0.60970  Biso   1.000  N 
  Cd2      1.0000 0.85903  0.13917  0.69193  Biso   1.000  Cd
  O1       1.0000 0.77340  0.20960  0.73920  Biso   1.000  O 
  C2       1.0000 0.72810  0.17220  0.76390  Biso   1.000  C 
  O2       1.0000 0.73360  0.12000  0.74720  Biso   1.000  O 
  C3       1.0000 0.66510  0.19360  0.82400  Biso   1.000  C 
  C4       1.0000 0.61620  0.15570  0.86140  Biso   1.000  C 
  C5       1.0000 0.56010  0.17430  0.92120  Biso   1.000  C 
  H1       1.0000 0.52720  0.14760  0.94570  Biso   1.000  H 
  C6       1.0000 0.55380  0.23060  0.94320  Biso   1.000  C 
  C7       1.0000 0.57920  0.27010  0.86100  Biso   1.000  C 
  H2       1.0000 0.55710  0.30730  0.84580  Biso   1.000  H 
  C8       1.0000 0.63750  0.25190  0.80500  Biso   1.000  C 
  H3       1.0000 0.65770  0.27730  0.75560  Biso   1.000  H 
  N5       1.0000 0.49710  0.24810  0.01060  Biso   1.000  N 
  N6       1.0000 0.44390  0.20780  0.03000  Biso   1.000  N 
  N7       1.0000 0.40070  0.23360  0.09170  Biso   1.000  N 
  N8       1.0000 0.42200  0.28940  0.10970  Biso   1.000  N 
  Cd3      1.0000 0.35903  0.36083  0.19193  Biso   1.000  Cd
  N9       1.0000 0.28170  0.38390  0.97090  Biso   1.000  N 
  C9       1.0000 0.24350  0.34560  0.87630  Biso   1.000  C 
  C10      1.0000 0.18750  0.35940  0.75330  Biso   1.000  C 
  H4       1.0000 0.16010  0.33050  0.69260  Biso   1.000  H 
  C11      1.0000 0.17210  0.41600  0.71990  Biso   1.000  C 
  C12      1.0000 0.20860  0.45760  0.81440  Biso   1.000  C 
  C13      1.0000 0.26500  0.44110  0.94000  Biso   1.000  C 
  C14      1.0000 0.31050  0.48220  0.04600  Biso   1.000  C 
  N10      1.0000 0.36030  0.46190  0.16690  Biso   1.000  N 
  C15      1.0000 0.40080  0.49880  0.26370  Biso   1.000  C 
  H5       1.0000 0.43600  0.48370  0.34530  Biso   1.000  H 
  C16      1.0000 0.39440  0.55770  0.25150  Biso   1.000  C 
  H6       1.0000 0.42220  0.58220  0.32290  Biso   1.000  H 
  C17      1.0000 0.34540  0.57840  0.12950  Biso   1.000  C 
  H7       1.0000 0.34050  0.61810  0.11600  Biso   1.000  H 
  C18      1.0000 0.30290  0.54210  0.02520  Biso   1.000  C 
  H8       1.0000 0.26950  0.55700  0.94210  Biso   1.000  H 
  H9       1.0000 0.19580  0.49640  0.79490  Biso   1.000  H 
  H10      1.0000 0.13710  0.42640  0.63370  Biso   1.000  H 
  H11      1.0000 0.25590  0.30680  0.89580  Biso   1.000  H 
  O3       1.0000 0.27340  0.29040  0.23920  Biso   1.000  O 
  C19      1.0000 0.22810  0.32780  0.26390  Biso   1.000  C 
  C20      1.0000 0.16510  0.30640  0.32400  Biso   1.000  C 
  C21      1.0000 0.11620  0.34430  0.36140  Biso   1.000  C 
  C22      1.0000 0.06010  0.32570  0.42120  Biso   1.000  C 
  C23      1.0000 0.05380  0.26940  0.44320  Biso   1.000  C 
  C24      1.0000 0.07920  0.22990  0.36100  Biso   1.000  C 
  C25      1.0000 0.13750  0.24810  0.30500  Biso   1.000  C 
  H12      1.0000 0.15770  0.22270  0.25560  Biso   1.000  H 
  H13      1.0000 0.05710  0.19270  0.34580  Biso   1.000  H 
  H14      1.0000 0.02720  0.35240  0.44570  Biso   1.000  H 
  H15      1.0000 0.12040  0.38360  0.34650  Biso   1.000  H 
  O4       1.0000 0.23360  0.38000  0.24720  Biso   1.000  O 
  S2       1.0000 0.47077  0.36513  0.43560  Biso   1.000  S 
  C26      1.0000 0.51770  0.29960  0.44010  Biso   1.000  C 
  N11      1.0000 0.50290  0.24810  0.48940  Biso   1.000  N 
  N12      1.0000 0.55610  0.20780  0.47000  Biso   1.000  N 
  N13      1.0000 0.59930  0.23360  0.40830  Biso   1.000  N 
  N14      1.0000 0.57800  0.28940  0.39030  Biso   1.000  N 
  Cd4      1.0000 0.64097  0.36083  0.30807  Biso   1.000  Cd
  S3       1.0000 0.52923  0.36513  0.06440  Biso   1.000  S 
  C27      1.0000 0.48230  0.29960  0.05990  Biso   1.000  C 
  N15      1.0000 0.63970  0.46190  0.33310  Biso   1.000  N 
  C28      1.0000 0.59920  0.49880  0.23630  Biso   1.000  C 
  H16      1.0000 0.56400  0.48370  0.15470  Biso   1.000  H 
  C29      1.0000 0.60560  0.55770  0.24850  Biso   1.000  C 
  H17      1.0000 0.57780  0.58220  0.17710  Biso   1.000  H 
  C30      1.0000 0.65460  0.57840  0.37050  Biso   1.000  C 
  H18      1.0000 0.65950  0.61810  0.38400  Biso   1.000  H 
  C31      1.0000 0.69710  0.54210  0.47480  Biso   1.000  C 
  C32      1.0000 0.68950  0.48220  0.45400  Biso   1.000  C 
  C33      1.0000 0.73500  0.44110  0.56000  Biso   1.000  C 
  N16      1.0000 0.71830  0.38390  0.52910  Biso   1.000  N 
  C34      1.0000 0.75650  0.34560  0.62370  Biso   1.000  C 
  H19      1.0000 0.74410  0.30680  0.60420  Biso   1.000  H 
  C35      1.0000 0.81250  0.35940  0.74670  Biso   1.000  C 
  H20      1.0000 0.83990  0.33050  0.80740  Biso   1.000  H 
  C36      1.0000 0.82790  0.41600  0.78010  Biso   1.000  C 
  C37      1.0000 0.79140  0.45760  0.68560  Biso   1.000  C 
  H21      1.0000 0.80420  0.49640  0.70510  Biso   1.000  H 
  H22      1.0000 0.86290  0.42640  0.86630  Biso   1.000  H 
  H23      1.0000 0.73050  0.55700  0.55790  Biso   1.000  H 
  C38      1.0000 0.77190  0.32780  0.23610  Biso   1.000  C 
  C39      1.0000 0.83490  0.30640  0.17600  Biso   1.000  C 
  C40      1.0000 0.88380  0.34430  0.13860  Biso   1.000  C 
  C41      1.0000 0.93990  0.32570  0.07880  Biso   1.000  C 
  C42      1.0000 0.94620  0.26940  0.05680  Biso   1.000  C 
  C43      1.0000 0.92080  0.22990  0.13900  Biso   1.000  C 
  H24      1.0000 0.94290  0.19270  0.15420  Biso   1.000  H 
  C44      1.0000 0.86250  0.24810  0.19500  Biso   1.000  C 
  H25      1.0000 0.84230  0.22270  0.24440  Biso   1.000  H 
  N17      1.0000 0.00290  0.25190  0.98940  Biso   1.000  N 
  N18      1.0000 0.05610  0.29220  0.97000  Biso   1.000  N 
  N19      1.0000 0.09930  0.26640  0.90830  Biso   1.000  N 
  N20      1.0000 0.07800  0.21060  0.89030  Biso   1.000  N 
  C45      1.0000 0.01770  0.20040  0.94010  Biso   1.000  C 
  S4       1.0000 0.97077  0.13487  0.93560  Biso   1.000  S 
  H26      1.0000 0.97280  0.35240  0.05430  Biso   1.000  H 
  H27      1.0000 0.87960  0.38360  0.15350  Biso   1.000  H 
  O5       1.0000 0.76640  0.38000  0.25280  Biso   1.000  O 
  O6       1.0000 0.72660  0.29040  0.26080  Biso   1.000  O 
  C46      1.0000 0.44620  0.23060  0.55680  Biso   1.000  C 
  C47      1.0000 0.42080  0.27010  0.63900  Biso   1.000  C 
  H28      1.0000 0.44290  0.30730  0.65420  Biso   1.000  H 
  C48      1.0000 0.36250  0.25190  0.69500  Biso   1.000  C 
  C49      1.0000 0.33490  0.19360  0.67600  Biso   1.000  C 
  C50      1.0000 0.38380  0.15570  0.63860  Biso   1.000  C 
  C51      1.0000 0.43990  0.17430  0.57880  Biso   1.000  C 
  H29      1.0000 0.47280  0.14760  0.55430  Biso   1.000  H 
  H30      1.0000 0.37960  0.11640  0.65350  Biso   1.000  H 
  C52      1.0000 0.27190  0.17220  0.73610  Biso   1.000  C 
  O7       1.0000 0.26640  0.12000  0.75280  Biso   1.000  O 
  O8       1.0000 0.22660  0.20960  0.76080  Biso   1.000  O 
  H31      1.0000 0.34230  0.27730  0.74440  Biso   1.000  H 
  H32      1.0000 0.62040  0.11640  0.84650  Biso   1.000  H 
  N21      1.0000 0.78170  0.11610  0.47090  Biso   1.000  N 
  C53      1.0000 0.74350  0.15440  0.37630  Biso   1.000  C 
  C54      1.0000 0.68750  0.14060  0.25330  Biso   1.000  C 
  H33      1.0000 0.66010  0.16950  0.19260  Biso   1.000  H 
  C55      1.0000 0.67210  0.08400  0.21990  Biso   1.000  C 
  H34      1.0000 0.63710  0.07360  0.13370  Biso   1.000  H 
  C56      1.0000 0.70860  0.04240  0.31440  Biso   1.000  C 
  H35      1.0000 0.69580  0.00360  0.29490  Biso   1.000  H 
  C57      1.0000 0.76500  0.05890  0.44000  Biso   1.000  C 
  C58      1.0000 0.81050  0.01780  0.54600  Biso   1.000  C 
  N22      1.0000 0.86030  0.03810  0.66690  Biso   1.000  N 
  C59      1.0000 0.90080  0.00120  0.76370  Biso   1.000  C 
  H36      1.0000 0.93600  0.01630  0.84530  Biso   1.000  H 
  C60      1.0000 0.89440  0.94230  0.75150  Biso   1.000  C 
  H37      1.0000 0.92220  0.91780  0.82290  Biso   1.000  H 
  C61      1.0000 0.84540  0.92160  0.62950  Biso   1.000  C 
  H38      1.0000 0.84050  0.88190  0.61600  Biso   1.000  H 
  C62      1.0000 0.80290  0.95790  0.52520  Biso   1.000  C 
  H39      1.0000 0.76950  0.94300  0.44210  Biso   1.000  H 
  H40      1.0000 0.75590  0.19320  0.39580  Biso   1.000  H 
  N23      1.0000 0.13970  0.03810  0.83310  Biso   1.000  N 
  C63      1.0000 0.09920  0.00120  0.73630  Biso   1.000  C 
  H41      1.0000 0.06400  0.01630  0.65470  Biso   1.000  H 
  C64      1.0000 0.10560  0.94230  0.74850  Biso   1.000  C 
  H42      1.0000 0.07780  0.91780  0.67710  Biso   1.000  H 
  C65      1.0000 0.15460  0.92160  0.87050  Biso   1.000  C 
  H43      1.0000 0.15950  0.88190  0.88400  Biso   1.000  H 
  C66      1.0000 0.19710  0.95790  0.97480  Biso   1.000  C 
  H44      1.0000 0.23050  0.94300  0.05790  Biso   1.000  H 
  C67      1.0000 0.18950  0.01780  0.95400  Biso   1.000  C 
  C68      1.0000 0.23500  0.05890  0.06000  Biso   1.000  C 
  N24      1.0000 0.21830  0.11610  0.02910  Biso   1.000  N 
  C69      1.0000 0.25650  0.15440  0.12370  Biso   1.000  C 
  H45      1.0000 0.24410  0.19320  0.10420  Biso   1.000  H 
  C70      1.0000 0.31250  0.14060  0.24670  Biso   1.000  C 
  C71      1.0000 0.32790  0.08400  0.28010  Biso   1.000  C 
  C72      1.0000 0.29140  0.04240  0.18560  Biso   1.000  C 
  H46      1.0000 0.30420  0.00360  0.20510  Biso   1.000  H 
  H47      1.0000 0.36290  0.07360  0.36630  Biso   1.000  H 
  H48      1.0000 0.33990  0.16950  0.30740  Biso   1.000  H 
