data_image0
_cell_length_a       9.333
_cell_length_b       23.444
_cell_length_c       16.4638
_cell_angle_alpha    90
_cell_angle_beta     103.628
_cell_angle_gamma    90

_symmetry_space_group_name_H-M    "P 1"
_symmetry_int_tables_number       1

loop_
  _symmetry_equiv_pos_as_xyz
  'x, y, z'

loop_
  _atom_site_label
  _atom_site_occupancy
  _atom_site_fract_x
  _atom_site_fract_y
  _atom_site_fract_z
  _atom_site_thermal_displace_type
  _atom_site_B_iso_or_equiv
  _atom_site_type_symbol
  Pr1      1.0000 0.85643  0.00001  0.17103  Biso   1.000  Pr
  O1       1.0000 0.60550  0.05030  0.12770  Biso   1.000  O 
  C1       1.0000 0.54200  0.02120  0.17050  Biso   1.000  C 
  C2       1.0000 0.37870  0.03180  0.16860  Biso   1.000  C 
  O2       1.0000 0.31990  0.07730  0.11200  Biso   1.000  O 
  C3       1.0000 0.29110  0.06640  0.03100  Biso   1.000  C 
  O3       1.0000 0.28820  0.01780  0.00400  Biso   1.000  O 
  C4       1.0000 0.26440  0.12060  0.98050  Biso   1.000  C 
  C5       1.0000 0.22520  0.11650  0.89050  Biso   1.000  C 
  C6       1.0000 0.20500  0.16330  0.84640  Biso   1.000  C 
  H1       1.0000 0.17650  0.15890  0.78870  Biso   1.000  H 
  C7       1.0000 0.22100  0.21590  0.87440  Biso   1.000  C 
  H2       1.0000 0.20500  0.24740  0.83890  Biso   1.000  H 
  C8       1.0000 0.26300  0.22150  0.96080  Biso   1.000  C 
  H3       1.0000 0.28190  0.25770  0.98390  Biso   1.000  H 
  C9       1.0000 0.27850  0.17330  0.01510  Biso   1.000  C 
  H4       1.0000 0.29760  0.17790  0.07280  Biso   1.000  H 
  H5       1.0000 0.21440  0.08110  0.86440  Biso   1.000  H 
  C10      1.0000 0.36290  0.05010  0.25650  Biso   1.000  C 
  C11      1.0000 0.19610  0.06150  0.25110  Biso   1.000  C 
  O4       1.0000 0.15880  0.10990  0.26710  Biso   1.000  O 
  O5       1.0000 0.11520  0.01840  0.23190  Biso   1.000  O 
  O6       1.0000 0.44320  0.09960  0.27430  Biso   1.000  O 
  C12      1.0000 0.45670  0.11970  0.35510  Biso   1.000  C 
  C13      1.0000 0.51740  0.17660  0.36640  Biso   1.000  C 
  C14      1.0000 0.52590  0.20250  0.44580  Biso   1.000  C 
  C15      1.0000 0.58500  0.25650  0.46310  Biso   1.000  C 
  C16      1.0000 0.61380  0.28720  0.39420  Biso   1.000  C 
  H6       1.0000 0.64600  0.32470  0.40400  Biso   1.000  H 
  C17      1.0000 0.59800  0.26610  0.31190  Biso   1.000  C 
  H7       1.0000 0.61980  0.28770  0.26890  Biso   1.000  H 
  C18      1.0000 0.54620  0.20930  0.30090  Biso   1.000  C 
  H8       1.0000 0.53050  0.19300  0.24800  Biso   1.000  H 
  H9       1.0000 0.60460  0.27180  0.51670  Biso   1.000  H 
  H10      1.0000 0.49130  0.18280  0.48640  Biso   1.000  H 
  O7       1.0000 0.42350  0.09220  0.41000  Biso   1.000  O 
  H11      1.0000 0.40120  0.02050  0.29800  Biso   1.000  H 
  H12      1.0000 0.32200  0.99690  0.15140  Biso   1.000  H 
  O8       1.0000 0.60160  0.98090  0.21660  Biso   1.000  O 
  Pr2      1.0000 0.60241  0.88815  0.28919  Biso   1.000  Pr
  O9       1.0000 0.37180  0.88350  0.17630  Biso   1.000  O 
  C19      1.0000 0.34930  0.84760  0.11680  Biso   1.000  C 
  O10      1.0000 0.34250  0.79430  0.12480  Biso   1.000  O 
  C20      1.0000 0.34760  0.87160  0.03090  Biso   1.000  C 
  H13      1.0000 0.30640  0.91020  0.02620  Biso   1.000  H 
  O11      1.0000 0.26840  0.83770  0.96450  Biso   1.000  O 
  C21      1.0000 0.12410  0.83890  0.95170  Biso   1.000  C 
  C22      1.0000 0.04670  0.80550  0.87910  Biso   1.000  C 
  C23      1.0000 0.11730  0.77320  0.83170  Biso   1.000  C 
  C24      1.0000 0.04690  0.74190  0.76370  Biso   1.000  C 
  H14      1.0000 0.09880  0.72040  0.73270  Biso   1.000  H 
  C25      1.0000 0.89200  0.74390  0.74350  Biso   1.000  C 
  H15      1.0000 0.83980  0.72460  0.69650  Biso   1.000  H 
  C26      1.0000 0.81600  0.77400  0.79170  Biso   1.000  C 
  H16      1.0000 0.71320  0.77340  0.77900  Biso   1.000  H 
  C27      1.0000 0.89310  0.80470  0.85870  Biso   1.000  C 
  H17      1.0000 0.84220  0.82530  0.89120  Biso   1.000  H 
  H18      1.0000 0.21980  0.77250  0.84640  Biso   1.000  H 
  O12      1.0000 0.05960  0.86710  0.99550  Biso   1.000  O 
  C28      1.0000 0.50510  0.87290  0.01280  Biso   1.000  C 
  O13      1.0000 0.49460  0.91040  0.94350  Biso   1.000  O 
  C29      1.0000 0.52890  0.89120  0.87500  Biso   1.000  C 
  C30      1.0000 0.51230  0.93370  0.80880  Biso   1.000  C 
  C31      1.0000 0.53900  0.92070  0.73350  Biso   1.000  C 
  H19      1.0000 0.56520  0.88370  0.72310  Biso   1.000  H 
  C32      1.0000 0.52800  0.95940  0.67550  Biso   1.000  C 
  H20      1.0000 0.53920  0.94720  0.62360  Biso   1.000  H 
  C33      1.0000 0.50200  0.01510  0.68350  Biso   1.000  C 
  H21      1.0000 0.50410  0.04140  0.64150  Biso   1.000  H 
  C34      1.0000 0.46900  0.03170  0.76320  Biso   1.000  C 
  H22      1.0000 0.44250  0.06880  0.77290  Biso   1.000  H 
  C35      1.0000 0.47980  0.98920  0.82400  Biso   1.000  C 
  H23      1.0000 0.46450  0.99880  0.87610  Biso   1.000  H 
  O14      1.0000 0.55920  0.84240  0.86720  Biso   1.000  O 
  H24      1.0000 0.52870  0.83460  0.99600  Biso   1.000  H 
  C36      1.0000 0.62800  0.89230  0.08560  Biso   1.000  C 
  O15      1.0000 0.64810  0.86330  0.15110  Biso   1.000  O 
  O16      1.0000 0.70190  0.93480  0.07440  Biso   1.000  O 
  O17      1.0000 0.39970  0.91650  0.34600  Biso   1.000  O 
  C37      1.0000 0.34500  0.90650  0.40890  Biso   1.000  C 
  O18      1.0000 0.41170  0.89040  0.47930  Biso   1.000  O 
  C38      1.0000 0.17610  0.91480  0.38990  Biso   1.000  C 
  H25      1.0000 0.15270  0.95320  0.36720  Biso   1.000  H 
  O19      1.0000 0.12130  0.90910  0.46420  Biso   1.000  O 
  C39      1.0000 0.13300  0.95320  0.51170  Biso   1.000  C 
  H26      1.0000 0.25212  0.95655  0.53435  Biso   1.000  H 
  C40      1.0000 0.08620  0.94660  0.58960  Biso   1.000  C 
  C41      1.0000 0.05850  0.89300  0.61870  Biso   1.000  C 
  H27      1.0000 0.06630  0.86070  0.58730  Biso   1.000  H 
  C42      1.0000 0.01930  0.88780  0.69470  Biso   1.000  C 
  H28      1.0000 0.00070  0.85190  0.71420  Biso   1.000  H 
  C43      1.0000 0.00770  0.93610  0.74170  Biso   1.000  C 
  H29      1.0000 0.98140  0.93260  0.79250  Biso   1.000  H 
  C44      1.0000 0.03530  0.98970  0.71260  Biso   1.000  C 
  C45      1.0000 0.07460  0.99490  0.63660  Biso   1.000  C 
  H30      1.0000 0.09310  0.03080  0.61710  Biso   1.000  H 
  H31      1.0000 0.02760  0.02200  0.74400  Biso   1.000  H 
  O20      1.0000 0.09900  0.00540  0.46870  Biso   1.000  O 
  H32      1.0000 0.99565  0.00440  0.43505  Biso   1.000  H 
  C46      1.0000 0.09920  0.87250  0.32660  Biso   1.000  C 
  H33      1.0000 0.12990  0.87990  0.27470  Biso   1.000  H 
  O21      1.0000 0.13910  0.81630  0.35050  Biso   1.000  O 
  C47      1.0000 0.11970  0.77590  0.29450  Biso   1.000  C 
  C48      1.0000 0.14300  0.71930  0.30960  Biso   1.000  C 
  C49      1.0000 0.16900  0.67700  0.25550  Biso   1.000  C 
  C50      1.0000 0.18400  0.62050  0.28190  Biso   1.000  C 
  H34      1.0000 0.20120  0.59220  0.24570  Biso   1.000  H 
  C51      1.0000 0.17400  0.60630  0.36230  Biso   1.000  C 
  H35      1.0000 0.18420  0.56860  0.38000  Biso   1.000  H 
  C52      1.0000 0.14800  0.64860  0.41640  Biso   1.000  C 
  H36      1.0000 0.14140  0.63910  0.47020  Biso   1.000  H 
  C53      1.0000 0.13300  0.70510  0.39000  Biso   1.000  C 
  H37      1.0000 0.11570  0.73340  0.42620  Biso   1.000  H 
  H38      1.0000 0.17540  0.68650  0.20170  Biso   1.000  H 
  O22      1.0000 0.07310  0.78910  0.22060  Biso   1.000  O 
  C54      1.0000 0.92880  0.87950  0.30740  Biso   1.000  C 
  O23      1.0000 0.85560  0.84060  0.32590  Biso   1.000  O 
  O24      1.0000 0.88020  0.92680  0.27960  Biso   1.000  O 
  O25      1.0000 0.51550  0.78830  0.27530  Biso   1.000  O 
  C55      1.0000 0.56800  0.73300  0.31010  Biso   1.000  C 
  H39      1.0000 0.50030  0.71800  0.34050  Biso   1.000  H 
  H40      1.0000 0.57400  0.70740  0.26560  Biso   1.000  H 
  H41      1.0000 0.66340  0.73730  0.34700  Biso   1.000  H 
  O26      1.0000 0.71220  0.96540  0.39310  Biso   1.000  O 
  C56      1.0000 0.69100  0.98290  0.47010  Biso   1.000  C 
  H42      1.0000 0.69750  0.95050  0.50650  Biso   1.000  H 
  H43      1.0000 0.59470  0.99990  0.46240  Biso   1.000  H 
  H44      1.0000 0.76450  0.01040  0.49440  Biso   1.000  H 
  O27      1.0000 0.64500  0.84710  0.43530  Biso   1.000  O 
  H45      1.0000 0.63191  0.80506  0.43188  Biso   1.000  H 
  H46      1.0000 0.57304  0.86392  0.46432  Biso   1.000  H 
  O28      1.0000 0.88370  0.02930  0.03020  Biso   1.000  O 
  C57      1.0000 0.88750  0.00000  0.95620  Biso   1.000  C 
  H47      1.0000 0.84670  0.96250  0.95770  Biso   1.000  H 
  H48      1.0000 0.98770  0.99690  0.95130  Biso   1.000  H 
  H49      1.0000 0.83080  0.02050  0.90900  Biso   1.000  H 
  O29      1.0000 0.89080  0.10620  0.16840  Biso   1.000  O 
  H50      1.0000 0.99765  0.11533  0.18454  Biso   1.000  H 
  H51      1.0000 0.84030  0.12446  0.20842  Biso   1.000  H 
  O30      1.0000 0.86370  0.04650  0.32020  Biso   1.000  O 
  C58      1.0000 0.81900  0.09800  0.33640  Biso   1.000  C 
  H52      1.0000 0.78070  0.11780  0.28480  Biso   1.000  H 
  H53      1.0000 0.90120  0.11890  0.36920  Biso   1.000  H 
  H54      1.0000 0.74380  0.09460  0.36690  Biso   1.000  H 
  O31      1.0000 0.02450  0.92480  0.13110  Biso   1.000  O 
  H55      1.0000 0.11785  0.92279  0.17495  Biso   1.000  H 
  H56      1.0000 0.04655  0.93518  0.07684  Biso   1.000  H 
