data_image0
_cell_length_a       11.207
_cell_length_b       11.897
_cell_length_c       14.134
_cell_angle_alpha    103.71
_cell_angle_beta     89.77
_cell_angle_gamma    114.574

_symmetry_space_group_name_H-M    "P 1"
_symmetry_int_tables_number       1

loop_
  _symmetry_equiv_pos_as_xyz
  'x, y, z'

loop_
  _atom_site_label
  _atom_site_occupancy
  _atom_site_fract_x
  _atom_site_fract_y
  _atom_site_fract_z
  _atom_site_thermal_displace_type
  _atom_site_B_iso_or_equiv
  _atom_site_type_symbol
  Hg1      1.0000 0.05883  0.44962  0.76729  Biso   1.000  Hg
  S1       1.0000 0.30801  0.50872  0.76333  Biso   1.000  S 
  C1       1.0000 0.33940  0.40700  0.82850  Biso   1.000  C 
  H1       1.0000 0.31220  0.42200  0.89530  Biso   1.000  H 
  H2       1.0000 0.28600  0.31610  0.79400  Biso   1.000  H 
  C2       1.0000 0.48100  0.43360  0.83490  Biso   1.000  C 
  C3       1.0000 0.52570  0.34550  0.78630  Biso   1.000  C 
  H3       1.0000 0.46440  0.26450  0.74760  Biso   1.000  H 
  C4       1.0000 0.65780  0.37390  0.79360  Biso   1.000  C 
  H4       1.0000 0.68740  0.31220  0.76090  Biso   1.000  H 
  C5       1.0000 0.74760  0.49240  0.84850  Biso   1.000  C 
  H5       1.0000 0.83900  0.51230  0.85210  Biso   1.000  H 
  C6       1.0000 0.70600  0.58200  0.89810  Biso   1.000  C 
  C7       1.0000 0.57470  0.55270  0.89220  Biso   1.000  C 
  O1       1.0000 0.52180  0.63110  0.93980  Biso   1.000  O 
  C8       1.0000 0.60870  0.75940  0.99120  Biso   1.000  C 
  H6       1.0000 0.67370  0.80070  0.94830  Biso   1.000  H 
  C9       1.0000 0.52490  0.82870  0.02040  Biso   1.000  C 
  H7       1.0000 0.45890  0.78430  0.06150  Biso   1.000  H 
  H8       1.0000 0.58100  0.91630  0.06050  Biso   1.000  H 
  C10      1.0000 0.45420  0.83710  0.93360  Biso   1.000  C 
  H9       1.0000 0.40130  0.88560  0.95590  Biso   1.000  H 
  H10      1.0000 0.39430  0.75040  0.89420  Biso   1.000  H 
  O2       1.0000 0.55380  0.90170  0.87650  Biso   1.000  O 
  C11      1.0000 0.51420  0.92230  0.79310  Biso   1.000  C 
  C12      1.0000 0.38590  0.88240  0.75770  Biso   1.000  C 
  C13      1.0000 0.35740  0.91330  0.67570  Biso   1.000  C 
  H11      1.0000 0.26810  0.88350  0.65050  Biso   1.000  H 
  C14      1.0000 0.45720  0.98700  0.62950  Biso   1.000  C 
  H12      1.0000 0.43720  0.01300  0.57530  Biso   1.000  H 
  C15      1.0000 0.58590  0.02260  0.66270  Biso   1.000  C 
  H13      1.0000 0.65500  0.07110  0.62970  Biso   1.000  H 
  C16      1.0000 0.61700  0.98860  0.74440  Biso   1.000  C 
  C17      1.0000 0.75520  0.01780  0.77640  Biso   1.000  C 
  H14      1.0000 0.81630  0.07990  0.74300  Biso   1.000  H 
  H15      1.0000 0.77410  0.05770  0.84780  Biso   1.000  H 
  S2       1.0000 0.78434  0.87335  0.74877  Biso   1.000  S 
  C18      1.0000 0.74840  0.81410  0.61660  Biso   1.000  C 
  H16      1.0000 0.77730  0.88790  0.58740  Biso   1.000  H 
  C19      1.0000 0.60410  0.72940  0.58270  Biso   1.000  C 
  C20      1.0000 0.54090  0.74730  0.50800  Biso   1.000  C 
  C21      1.0000 0.40950  0.66870  0.47550  Biso   1.000  C 
  H17      1.0000 0.36700  0.68230  0.42420  Biso   1.000  H 
  C22      1.0000 0.34000  0.57010  0.51800  Biso   1.000  C 
  H18      1.0000 0.24950  0.51630  0.49590  Biso   1.000  H 
  C23      1.0000 0.40180  0.54940  0.59250  Biso   1.000  C 
  C24      1.0000 0.32820  0.44250  0.63750  Biso   1.000  C 
  H19      1.0000 0.37750  0.38990  0.63640  Biso   1.000  H 
  H20      1.0000 0.24070  0.38710  0.59980  Biso   1.000  H 
  C25      1.0000 0.53380  0.62950  0.62390  Biso   1.000  C 
  H21      1.0000 0.57690  0.61560  0.67470  Biso   1.000  H 
  H22      1.0000 0.58830  0.81470  0.47840  Biso   1.000  H 
  H23      1.0000 0.80020  0.76520  0.59190  Biso   1.000  H 
  Hg2      1.0000 0.04160  0.95035  0.76707  Biso   1.000  Hg
  S3       1.0000 0.10194  0.92231  0.92174  Biso   1.000  S 
  C26      1.0000 0.10030  0.77740  0.88610  Biso   1.000  C 
  N1       1.0000 0.10180  0.67950  0.86610  Biso   1.000  N 
  S4       1.0000 0.12695  0.03602  0.62788  Biso   1.000  S 
  C27      1.0000 0.05680  0.13570  0.63750  Biso   1.000  C 
  N2       1.0000 0.01150  0.20640  0.64310  Biso   1.000  N 
  H24      1.0000 0.31630  0.83320  0.78990  Biso   1.000  H 
  H25      1.0000 0.65700  0.75970  0.04980  Biso   1.000  H 
  H26      1.0000 0.76820  0.66330  0.93580  Biso   1.000  H 
  S5       1.0000 0.98061  0.36551  0.90771  Biso   1.000  S 
  C28      1.0000 0.03510  0.25310  0.88900  Biso   1.000  C 
  N3       1.0000 0.06940  0.17350  0.87950  Biso   1.000  N 
  S6       1.0000 0.97061  0.46135  0.61516  Biso   1.000  S 
  C29      1.0000 0.98190  0.61000  0.64680  Biso   1.000  C 
  N4       1.0000 0.98640  0.71080  0.66370  Biso   1.000  N 
