data_image0
_cell_length_a       15.937
_cell_length_b       15.937
_cell_length_c       21.884
_cell_angle_alpha    90
_cell_angle_beta     90
_cell_angle_gamma    90

_symmetry_space_group_name_H-M    "P 1"
_symmetry_int_tables_number       1

loop_
  _symmetry_equiv_pos_as_xyz
  'x, y, z'

loop_
  _atom_site_label
  _atom_site_occupancy
  _atom_site_fract_x
  _atom_site_fract_y
  _atom_site_fract_z
  _atom_site_thermal_displace_type
  _atom_site_B_iso_or_equiv
  _atom_site_type_symbol
  C1       1.0000 0.58590  0.63970  0.63850  Biso   1.000  C 
  H1       1.0000 0.53640  0.61000  0.64930  Biso   1.000  H 
  N1       1.0000 0.62300  0.61950  0.58800  Biso   1.000  N 
  C2       1.0000 0.69680  0.65760  0.57560  Biso   1.000  C 
  H2       1.0000 0.72640  0.64210  0.53960  Biso   1.000  H 
  C3       1.0000 0.73100  0.71830  0.61310  Biso   1.000  C 
  H3       1.0000 0.78470  0.74080  0.60380  Biso   1.000  H 
  C4       1.0000 0.68800  0.74700  0.66430  Biso   1.000  C 
  C5       1.0000 0.71860  0.81870  0.70200  Biso   1.000  C 
  C6       1.0000 0.77780  0.87310  0.67650  Biso   1.000  C 
  H4       1.0000 0.79640  0.86390  0.63580  Biso   1.000  H 
  C7       1.0000 0.80990  0.93980  0.70910  Biso   1.000  C 
  C8       1.0000 0.87250  0.99640  0.67930  Biso   1.000  C 
  N2       1.0000 0.95420  0.99410  0.68350  Biso   1.000  N 
  N3       1.0000 0.98610  0.05520  0.64520  Biso   1.000  N 
  C9       1.0000 0.92350  0.09150  0.61830  Biso   1.000  C 
  N4       1.0000 0.85040  0.05640  0.63900  Biso   1.000  N 
  N5       1.0000 0.76860  0.07520  0.61720  Biso   1.000  N 
  H5       1.0000 0.73990  0.02640  0.61160  Biso   1.000  H 
  H6       1.0000 0.74100  0.10790  0.64470  Biso   1.000  H 
  C10      1.0000 0.93140  0.16070  0.57430  Biso   1.000  C 
  C11      1.0000 0.87240  0.22500  0.57030  Biso   1.000  C 
  H7       1.0000 0.82430  0.22380  0.59590  Biso   1.000  H 
  C12      1.0000 0.88260  0.29090  0.52950  Biso   1.000  C 
  C13      1.0000 0.81750  0.35800  0.52320  Biso   1.000  C 
  C14      1.0000 0.80670  0.40360  0.47030  Biso   1.000  C 
  H8       1.0000 0.84500  0.39630  0.43740  Biso   1.000  H 
  C15      1.0000 0.74090  0.45990  0.46400  Biso   1.000  C 
  H9       1.0000 0.73420  0.48900  0.42640  Biso   1.000  H 
  N6       1.0000 0.68610  0.47460  0.50960  Biso   1.000  N 
  C16      1.0000 0.69730  0.43360  0.56180  Biso   1.000  C 
  H10      1.0000 0.65980  0.44430  0.59460  Biso   1.000  H 
  C17      1.0000 0.76100  0.37600  0.57060  Biso   1.000  C 
  H11      1.0000 0.76650  0.34840  0.60880  Biso   1.000  H 
  Cd1      1.0000 0.55735  0.55735  0.50000  Biso   1.000  Cd
  N7       1.0000 0.47460  0.68610  0.49040  Biso   1.000  N 
  C18      1.0000 0.43360  0.69730  0.43820  Biso   1.000  C 
  H12      1.0000 0.44430  0.65980  0.40540  Biso   1.000  H 
  C19      1.0000 0.37600  0.76100  0.42940  Biso   1.000  C 
  H13      1.0000 0.34840  0.76650  0.39120  Biso   1.000  H 
  C20      1.0000 0.35800  0.81750  0.47680  Biso   1.000  C 
  C21      1.0000 0.40360  0.80670  0.52970  Biso   1.000  C 
  H14      1.0000 0.39630  0.84500  0.56260  Biso   1.000  H 
  C22      1.0000 0.45990  0.74090  0.53600  Biso   1.000  C 
  H15      1.0000 0.48900  0.73420  0.57360  Biso   1.000  H 
  C23      1.0000 0.29090  0.88260  0.47050  Biso   1.000  C 
  C24      1.0000 0.22500  0.87240  0.42970  Biso   1.000  C 
  H16      1.0000 0.22380  0.82430  0.40410  Biso   1.000  H 
  C25      1.0000 0.16070  0.93140  0.42570  Biso   1.000  C 
  C26      1.0000 0.16390  0.00280  0.46240  Biso   1.000  C 
  H17      1.0000 0.12130  0.04430  0.45910  Biso   1.000  H 
  C27      1.0000 0.22870  0.01330  0.50350  Biso   1.000  C 
  H18      1.0000 0.23010  0.06210  0.52840  Biso   1.000  H 
  C28      1.0000 0.29120  0.95480  0.50910  Biso   1.000  C 
  H19      1.0000 0.33450  0.96230  0.53840  Biso   1.000  H 
  C29      1.0000 0.09150  0.92350  0.38170  Biso   1.000  C 
  N8       1.0000 0.05520  0.98610  0.35480  Biso   1.000  N 
  N9       1.0000 0.99410  0.95420  0.31650  Biso   1.000  N 
  Cd2      1.0000 0.94265  0.05735  0.25000  Biso   1.000  Cd
  N10      1.0000 0.87700  0.11950  0.16200  Biso   1.000  N 
  C30      1.0000 0.91410  0.13970  0.11150  Biso   1.000  C 
  C31      1.0000 0.88590  0.20260  0.07150  Biso   1.000  C 
  H20      1.0000 0.91630  0.21510  0.03530  Biso   1.000  H 
  C32      1.0000 0.81200  0.24700  0.08570  Biso   1.000  C 
  C33      1.0000 0.76900  0.21830  0.13690  Biso   1.000  C 
  H21      1.0000 0.71530  0.24080  0.14620  Biso   1.000  H 
  C34      1.0000 0.80320  0.15760  0.17440  Biso   1.000  C 
  H22      1.0000 0.77360  0.14210  0.21040  Biso   1.000  H 
  C35      1.0000 0.78140  0.31870  0.04800  Biso   1.000  C 
  C36      1.0000 0.72220  0.37310  0.07350  Biso   1.000  C 
  H23      1.0000 0.70360  0.36390  0.11420  Biso   1.000  H 
  C37      1.0000 0.69010  0.43980  0.04090  Biso   1.000  C 
  C38      1.0000 0.62750  0.49640  0.07070  Biso   1.000  C 
  N11      1.0000 0.54580  0.49410  0.06650  Biso   1.000  N 
  Cd3      1.0000 0.44265  0.44265  0.00000  Biso   1.000  Cd
  N12      1.0000 0.37700  0.38050  0.08800  Biso   1.000  N 
  C39      1.0000 0.41410  0.36030  0.13850  Biso   1.000  C 
  C40      1.0000 0.38590  0.29740  0.17850  Biso   1.000  C 
  C41      1.0000 0.31200  0.25300  0.16430  Biso   1.000  C 
  C42      1.0000 0.28140  0.18130  0.20200  Biso   1.000  C 
  C43      1.0000 0.22220  0.12690  0.17650  Biso   1.000  C 
  H24      1.0000 0.20360  0.13610  0.13580  Biso   1.000  H 
  C44      1.0000 0.19010  0.06020  0.20910  Biso   1.000  C 
  C45      1.0000 0.12750  0.00360  0.17930  Biso   1.000  C 
  N13      1.0000 0.04580  0.00590  0.18350  Biso   1.000  N 
  N14      1.0000 0.01390  0.94480  0.14520  Biso   1.000  N 
  C46      1.0000 0.07650  0.90850  0.11830  Biso   1.000  C 
  N15      1.0000 0.14960  0.94360  0.13900  Biso   1.000  N 
  N16      1.0000 0.23140  0.92480  0.11720  Biso   1.000  N 
  H25      1.0000 0.25900  0.89210  0.14470  Biso   1.000  H 
  H26      1.0000 0.26010  0.97360  0.11160  Biso   1.000  H 
  C47      1.0000 0.06860  0.83930  0.07430  Biso   1.000  C 
  C48      1.0000 0.12760  0.77500  0.07030  Biso   1.000  C 
  H27      1.0000 0.17570  0.77620  0.09590  Biso   1.000  H 
  C49      1.0000 0.11740  0.70910  0.02950  Biso   1.000  C 
  C50      1.0000 0.18250  0.64200  0.02320  Biso   1.000  C 
  C51      1.0000 0.23900  0.62400  0.07060  Biso   1.000  C 
  H28      1.0000 0.23350  0.65160  0.10880  Biso   1.000  H 
  C52      1.0000 0.30270  0.56640  0.06180  Biso   1.000  C 
  N17      1.0000 0.31390  0.52540  0.00960  Biso   1.000  N 
  C53      1.0000 0.25910  0.54010  0.96400  Biso   1.000  C 
  C54      1.0000 0.19330  0.59640  0.97030  Biso   1.000  C 
  H29      1.0000 0.15500  0.60370  0.93740  Biso   1.000  H 
  H30      1.0000 0.26580  0.51100  0.92640  Biso   1.000  H 
  H31      1.0000 0.34020  0.55570  0.09460  Biso   1.000  H 
  C55      1.0000 0.04520  0.70880  0.99090  Biso   1.000  C 
  H32      1.0000 0.03770  0.66550  0.96160  Biso   1.000  H 
  C56      1.0000 0.98670  0.77130  0.99650  Biso   1.000  C 
  H33      1.0000 0.93790  0.76990  0.97160  Biso   1.000  H 
  C57      1.0000 0.99720  0.83610  0.03760  Biso   1.000  C 
  H34      1.0000 0.95570  0.87870  0.04090  Biso   1.000  H 
  C58      1.0000 0.21880  0.04480  0.26920  Biso   1.000  C 
  C59      1.0000 0.27660  0.10050  0.29430  Biso   1.000  C 
  H35      1.0000 0.29440  0.09280  0.33530  Biso   1.000  H 
  C60      1.0000 0.30830  0.16610  0.26130  Biso   1.000  C 
  H36      1.0000 0.34930  0.20180  0.27920  Biso   1.000  H 
  H37      1.0000 0.19920  0.99790  0.29180  Biso   1.000  H 
  C61      1.0000 0.26900  0.28170  0.11310  Biso   1.000  C 
  H38      1.0000 0.21530  0.25920  0.10380  Biso   1.000  H 
  C62      1.0000 0.30320  0.34240  0.07560  Biso   1.000  C 
  H39      1.0000 0.27360  0.35790  0.03960  Biso   1.000  H 
  H40      1.0000 0.41630  0.28490  0.21470  Biso   1.000  H 
  H41      1.0000 0.46360  0.39000  0.14930  Biso   1.000  H 
  N18      1.0000 0.38050  0.37700  0.91200  Biso   1.000  N 
  C63      1.0000 0.36030  0.41410  0.86150  Biso   1.000  C 
  C64      1.0000 0.29740  0.38590  0.82150  Biso   1.000  C 
  C65      1.0000 0.25300  0.31200  0.83570  Biso   1.000  C 
  C66      1.0000 0.18130  0.28140  0.79800  Biso   1.000  C 
  C67      1.0000 0.16610  0.30830  0.73870  Biso   1.000  C 
  C68      1.0000 0.10050  0.27660  0.70570  Biso   1.000  C 
  C69      1.0000 0.04480  0.21880  0.73080  Biso   1.000  C 
  C70      1.0000 0.06020  0.19010  0.79090  Biso   1.000  C 
  C71      1.0000 0.00360  0.12750  0.82070  Biso   1.000  C 
  N19      1.0000 0.00590  0.04580  0.81650  Biso   1.000  N 
  Cd4      1.0000 0.05735  0.94265  0.75000  Biso   1.000  Cd
  N20      1.0000 0.12300  0.88050  0.66200  Biso   1.000  N 
  C72      1.0000 0.08590  0.86030  0.61150  Biso   1.000  C 
  H42      1.0000 0.03640  0.89000  0.60070  Biso   1.000  H 
  C73      1.0000 0.11410  0.79740  0.57150  Biso   1.000  C 
  C74      1.0000 0.18800  0.75300  0.58570  Biso   1.000  C 
  C75      1.0000 0.21860  0.68130  0.54800  Biso   1.000  C 
  C76      1.0000 0.19170  0.66610  0.48870  Biso   1.000  C 
  H43      1.0000 0.15070  0.70180  0.47080  Biso   1.000  H 
  C77      1.0000 0.22340  0.60050  0.45570  Biso   1.000  C 
  H44      1.0000 0.20560  0.59280  0.41470  Biso   1.000  H 
  C78      1.0000 0.28120  0.54480  0.48080  Biso   1.000  C 
  H45      1.0000 0.30080  0.49790  0.45820  Biso   1.000  H 
  C79      1.0000 0.30990  0.56020  0.54090  Biso   1.000  C 
  C80      1.0000 0.27780  0.62690  0.57350  Biso   1.000  C 
  H46      1.0000 0.29640  0.63610  0.61420  Biso   1.000  H 
  C81      1.0000 0.37250  0.50360  0.57070  Biso   1.000  C 
  N21      1.0000 0.35040  0.44360  0.61100  Biso   1.000  N 
  N22      1.0000 0.26860  0.42480  0.63280  Biso   1.000  N 
  H47      1.0000 0.23990  0.47360  0.63840  Biso   1.000  H 
  H48      1.0000 0.24100  0.39210  0.60530  Biso   1.000  H 
  C82      1.0000 0.42350  0.40850  0.63170  Biso   1.000  C 
  C83      1.0000 0.43140  0.33930  0.67570  Biso   1.000  C 
  C84      1.0000 0.37240  0.27500  0.67970  Biso   1.000  C 
  H49      1.0000 0.32430  0.27620  0.65410  Biso   1.000  H 
  C85      1.0000 0.38260  0.20910  0.72050  Biso   1.000  C 
  C86      1.0000 0.31750  0.14200  0.72680  Biso   1.000  C 
  C87      1.0000 0.26100  0.12400  0.67940  Biso   1.000  C 
  C88      1.0000 0.19730  0.06640  0.68820  Biso   1.000  C 
  H50      1.0000 0.15980  0.05570  0.65540  Biso   1.000  H 
  N23      1.0000 0.18610  0.02540  0.74040  Biso   1.000  N 
  C89      1.0000 0.24090  0.04010  0.78600  Biso   1.000  C 
  H51      1.0000 0.23420  0.01100  0.82360  Biso   1.000  H 
  C90      1.0000 0.30670  0.09640  0.77970  Biso   1.000  C 
  H52      1.0000 0.34500  0.10370  0.81260  Biso   1.000  H 
  H53      1.0000 0.26650  0.15160  0.64120  Biso   1.000  H 
  C91      1.0000 0.45480  0.20880  0.75910  Biso   1.000  C 
  H54      1.0000 0.46230  0.16550  0.78840  Biso   1.000  H 
  C92      1.0000 0.51330  0.27130  0.75350  Biso   1.000  C 
  H55      1.0000 0.56210  0.26990  0.77840  Biso   1.000  H 
  C93      1.0000 0.50280  0.33610  0.71240  Biso   1.000  C 
  H56      1.0000 0.54430  0.37870  0.70910  Biso   1.000  H 
  N24      1.0000 0.48610  0.44480  0.60480  Biso   1.000  N 
  N25      1.0000 0.45420  0.50590  0.56650  Biso   1.000  N 
  C94      1.0000 0.23100  0.78170  0.63690  Biso   1.000  C 
  C95      1.0000 0.19680  0.84240  0.67440  Biso   1.000  C 
  H57      1.0000 0.22640  0.85790  0.71040  Biso   1.000  H 
  H58      1.0000 0.28470  0.75920  0.64620  Biso   1.000  H 
  H59      1.0000 0.08370  0.78490  0.53530  Biso   1.000  H 
  N26      1.0000 0.11950  0.87700  0.83800  Biso   1.000  N 
  C96      1.0000 0.13970  0.91410  0.88850  Biso   1.000  C 
  C97      1.0000 0.20260  0.88590  0.92850  Biso   1.000  C 
  H60      1.0000 0.21510  0.91630  0.96470  Biso   1.000  H 
  C98      1.0000 0.24700  0.81200  0.91430  Biso   1.000  C 
  C99      1.0000 0.21830  0.76900  0.86310  Biso   1.000  C 
  C100     1.0000 0.15760  0.80320  0.82560  Biso   1.000  C 
  H61      1.0000 0.14210  0.77360  0.78960  Biso   1.000  H 
  H62      1.0000 0.24080  0.71530  0.85380  Biso   1.000  H 
  C101     1.0000 0.31870  0.78140  0.95200  Biso   1.000  C 
  C102     1.0000 0.37310  0.72220  0.92650  Biso   1.000  C 
  H63      1.0000 0.36390  0.70360  0.88580  Biso   1.000  H 
  C103     1.0000 0.43980  0.69010  0.95910  Biso   1.000  C 
  C104     1.0000 0.49640  0.62750  0.92930  Biso   1.000  C 
  N27      1.0000 0.49410  0.54580  0.93350  Biso   1.000  N 
  N28      1.0000 0.55520  0.51390  0.89520  Biso   1.000  N 
  C105     1.0000 0.59150  0.57650  0.86830  Biso   1.000  C 
  N29      1.0000 0.55640  0.64960  0.88900  Biso   1.000  N 
  N30      1.0000 0.57520  0.73140  0.86720  Biso   1.000  N 
  H64      1.0000 0.52640  0.76010  0.86160  Biso   1.000  H 
  H65      1.0000 0.60790  0.75900  0.89470  Biso   1.000  H 
  C106     1.0000 0.66070  0.56860  0.82430  Biso   1.000  C 
  C107     1.0000 0.66390  0.49720  0.78760  Biso   1.000  C 
  H66      1.0000 0.62130  0.45570  0.79090  Biso   1.000  H 
  C108     1.0000 0.72870  0.48670  0.74650  Biso   1.000  C 
  H67      1.0000 0.73010  0.43790  0.72160  Biso   1.000  H 
  C109     1.0000 0.79120  0.54520  0.74090  Biso   1.000  C 
  H68      1.0000 0.83450  0.53770  0.71160  Biso   1.000  H 
  C110     1.0000 0.79090  0.61740  0.77950  Biso   1.000  C 
  C111     1.0000 0.72500  0.62760  0.82030  Biso   1.000  C 
  H69      1.0000 0.72380  0.67570  0.84590  Biso   1.000  H 
  C112     1.0000 0.85800  0.68250  0.77320  Biso   1.000  C 
  C113     1.0000 0.90360  0.69330  0.72030  Biso   1.000  C 
  H70      1.0000 0.89630  0.65500  0.68740  Biso   1.000  H 
  C114     1.0000 0.95990  0.75910  0.71400  Biso   1.000  C 
  H71      1.0000 0.98900  0.76580  0.67640  Biso   1.000  H 
  N31      1.0000 0.97460  0.81390  0.75960  Biso   1.000  N 
  C115     1.0000 0.93360  0.80270  0.81180  Biso   1.000  C 
  H72      1.0000 0.94430  0.84020  0.84460  Biso   1.000  H 
  C116     1.0000 0.87600  0.73900  0.82060  Biso   1.000  C 
  H73      1.0000 0.84840  0.73350  0.85880  Biso   1.000  H 
  C117     1.0000 0.45520  0.71880  0.01920  Biso   1.000  C 
  H74      1.0000 0.50210  0.69920  0.04180  Biso   1.000  H 
  C118     1.0000 0.39950  0.77660  0.04430  Biso   1.000  C 
  H75      1.0000 0.40720  0.79440  0.08530  Biso   1.000  H 
  C119     1.0000 0.33390  0.80830  0.01130  Biso   1.000  C 
  H76      1.0000 0.29820  0.84930  0.02920  Biso   1.000  H 
  H77      1.0000 0.11000  0.96360  0.89930  Biso   1.000  H 
  N32      1.0000 0.94480  0.01390  0.85480  Biso   1.000  N 
  C120     1.0000 0.90850  0.07650  0.88170  Biso   1.000  C 
  C121     1.0000 0.83930  0.06860  0.92570  Biso   1.000  C 
  C122     1.0000 0.77500  0.12760  0.92970  Biso   1.000  C 
  H78      1.0000 0.77620  0.17570  0.90410  Biso   1.000  H 
  C123     1.0000 0.70910  0.11740  0.97050  Biso   1.000  C 
  C124     1.0000 0.64200  0.18250  0.97680  Biso   1.000  C 
  C125     1.0000 0.62400  0.23900  0.92940  Biso   1.000  C 
  H79      1.0000 0.65160  0.23350  0.89120  Biso   1.000  H 
  C126     1.0000 0.56640  0.30270  0.93820  Biso   1.000  C 
  H80      1.0000 0.55570  0.34020  0.90540  Biso   1.000  H 
  N33      1.0000 0.52540  0.31390  0.99040  Biso   1.000  N 
  C127     1.0000 0.54010  0.25910  0.03600  Biso   1.000  C 
  H81      1.0000 0.51100  0.26580  0.07360  Biso   1.000  H 
  C128     1.0000 0.59640  0.19330  0.02970  Biso   1.000  C 
  H82      1.0000 0.60370  0.15500  0.06260  Biso   1.000  H 
  C129     1.0000 0.70880  0.04520  0.00910  Biso   1.000  C 
  H83      1.0000 0.66550  0.03770  0.03840  Biso   1.000  H 
  C130     1.0000 0.77130  0.98670  0.00350  Biso   1.000  C 
  H84      1.0000 0.76990  0.93790  0.02840  Biso   1.000  H 
  C131     1.0000 0.83610  0.99720  0.96240  Biso   1.000  C 
  H85      1.0000 0.87870  0.95570  0.95910  Biso   1.000  H 
  N34      1.0000 0.94360  0.14960  0.86100  Biso   1.000  N 
  N35      1.0000 0.92480  0.23140  0.88280  Biso   1.000  N 
  H86      1.0000 0.89210  0.25900  0.85530  Biso   1.000  H 
  H87      1.0000 0.97360  0.26010  0.88840  Biso   1.000  H 
  C132     1.0000 0.12690  0.22220  0.82350  Biso   1.000  C 
  H88      1.0000 0.13610  0.20360  0.86420  Biso   1.000  H 
  H89      1.0000 0.99790  0.19920  0.70820  Biso   1.000  H 
  H90      1.0000 0.09280  0.29440  0.66470  Biso   1.000  H 
  H91      1.0000 0.20180  0.34930  0.72080  Biso   1.000  H 
  C133     1.0000 0.28170  0.26900  0.88690  Biso   1.000  C 
  H92      1.0000 0.25920  0.21530  0.89620  Biso   1.000  H 
  C134     1.0000 0.34240  0.30320  0.92440  Biso   1.000  C 
  H93      1.0000 0.35790  0.27360  0.96040  Biso   1.000  H 
  H94      1.0000 0.28490  0.41630  0.78530  Biso   1.000  H 
  H95      1.0000 0.39000  0.46360  0.85070  Biso   1.000  H 
  N36      1.0000 0.51390  0.55520  0.10480  Biso   1.000  N 
  C135     1.0000 0.57650  0.59150  0.13170  Biso   1.000  C 
  C136     1.0000 0.56860  0.66070  0.17570  Biso   1.000  C 
  C137     1.0000 0.49720  0.66390  0.21240  Biso   1.000  C 
  H96      1.0000 0.45570  0.62130  0.20910  Biso   1.000  H 
  C138     1.0000 0.48670  0.72870  0.25350  Biso   1.000  C 
  H97      1.0000 0.43790  0.73010  0.27840  Biso   1.000  H 
  C139     1.0000 0.54520  0.79120  0.25910  Biso   1.000  C 
  C140     1.0000 0.61740  0.79090  0.22050  Biso   1.000  C 
  C141     1.0000 0.68250  0.85800  0.22680  Biso   1.000  C 
  C142     1.0000 0.73900  0.87600  0.17940  Biso   1.000  C 
  H98      1.0000 0.73350  0.84840  0.14120  Biso   1.000  H 
  C143     1.0000 0.80270  0.93360  0.18820  Biso   1.000  C 
  H99      1.0000 0.84020  0.94430  0.15540  Biso   1.000  H 
  N37      1.0000 0.81390  0.97460  0.24040  Biso   1.000  N 
  C144     1.0000 0.75910  0.95990  0.28600  Biso   1.000  C 
  C145     1.0000 0.69330  0.90360  0.27970  Biso   1.000  C 
  H100     1.0000 0.65500  0.89630  0.31260  Biso   1.000  H 
  H101     1.0000 0.76580  0.98900  0.32360  Biso   1.000  H 
  C146     1.0000 0.62760  0.72500  0.17970  Biso   1.000  C 
  H102     1.0000 0.67570  0.72380  0.15410  Biso   1.000  H 
  H103     1.0000 0.53770  0.83450  0.28840  Biso   1.000  H 
  N38      1.0000 0.64960  0.55640  0.11100  Biso   1.000  N 
  N39      1.0000 0.73140  0.57520  0.13280  Biso   1.000  N 
  H104     1.0000 0.75900  0.60790  0.10530  Biso   1.000  H 
  H105     1.0000 0.76010  0.52640  0.13840  Biso   1.000  H 
  C147     1.0000 0.71880  0.45520  0.98080  Biso   1.000  C 
  H106     1.0000 0.69920  0.50210  0.95820  Biso   1.000  H 
  C148     1.0000 0.77660  0.39950  0.95570  Biso   1.000  C 
  H107     1.0000 0.79440  0.40720  0.91470  Biso   1.000  H 
  C149     1.0000 0.80830  0.33390  0.98870  Biso   1.000  C 
  H108     1.0000 0.84930  0.29820  0.97080  Biso   1.000  H 
  H109     1.0000 0.96360  0.11000  0.10070  Biso   1.000  H 
  N40      1.0000 0.88050  0.12300  0.33800  Biso   1.000  N 
  C150     1.0000 0.86030  0.08590  0.38850  Biso   1.000  C 
  H110     1.0000 0.89000  0.03640  0.39930  Biso   1.000  H 
  C151     1.0000 0.79740  0.11410  0.42850  Biso   1.000  C 
  C152     1.0000 0.75300  0.18800  0.41430  Biso   1.000  C 
  C153     1.0000 0.68130  0.21860  0.45200  Biso   1.000  C 
  C154     1.0000 0.62690  0.27780  0.42650  Biso   1.000  C 
  H111     1.0000 0.63610  0.29640  0.38580  Biso   1.000  H 
  C155     1.0000 0.56020  0.30990  0.45910  Biso   1.000  C 
  C156     1.0000 0.50360  0.37250  0.42930  Biso   1.000  C 
  N41      1.0000 0.44360  0.35040  0.38900  Biso   1.000  N 
  N42      1.0000 0.42480  0.26860  0.36720  Biso   1.000  N 
  H112     1.0000 0.39210  0.24100  0.39470  Biso   1.000  H 
  H113     1.0000 0.47360  0.23990  0.36160  Biso   1.000  H 
  C157     1.0000 0.40850  0.42350  0.36830  Biso   1.000  C 
  C158     1.0000 0.33930  0.43140  0.32430  Biso   1.000  C 
  C159     1.0000 0.27500  0.37240  0.32030  Biso   1.000  C 
  H114     1.0000 0.27620  0.32430  0.34590  Biso   1.000  H 
  C160     1.0000 0.20910  0.38260  0.27950  Biso   1.000  C 
  C161     1.0000 0.14200  0.31750  0.27320  Biso   1.000  C 
  C162     1.0000 0.09640  0.30670  0.22030  Biso   1.000  C 
  H115     1.0000 0.10370  0.34500  0.18740  Biso   1.000  H 
  C163     1.0000 0.04010  0.24090  0.21400  Biso   1.000  C 
  N43      1.0000 0.02540  0.18610  0.25960  Biso   1.000  N 
  C164     1.0000 0.06640  0.19730  0.31180  Biso   1.000  C 
  H116     1.0000 0.05570  0.15980  0.34460  Biso   1.000  H 
  C165     1.0000 0.12400  0.26100  0.32060  Biso   1.000  C 
  H117     1.0000 0.15160  0.26650  0.35880  Biso   1.000  H 
  H118     1.0000 0.01100  0.23420  0.17640  Biso   1.000  H 
  C166     1.0000 0.20880  0.45480  0.24090  Biso   1.000  C 
  H119     1.0000 0.16550  0.46230  0.21160  Biso   1.000  H 
  C167     1.0000 0.27130  0.51330  0.24650  Biso   1.000  C 
  H120     1.0000 0.26990  0.56210  0.22160  Biso   1.000  H 
  C168     1.0000 0.33610  0.50280  0.28760  Biso   1.000  C 
  H121     1.0000 0.37870  0.54430  0.29090  Biso   1.000  H 
  N44      1.0000 0.44480  0.48610  0.39520  Biso   1.000  N 
  N45      1.0000 0.50590  0.45420  0.43350  Biso   1.000  N 
  C169     1.0000 0.54480  0.28120  0.51920  Biso   1.000  C 
  H122     1.0000 0.49790  0.30080  0.54180  Biso   1.000  H 
  C170     1.0000 0.60050  0.22340  0.54430  Biso   1.000  C 
  H123     1.0000 0.59280  0.20560  0.58530  Biso   1.000  H 
  C171     1.0000 0.66610  0.19170  0.51130  Biso   1.000  C 
  H124     1.0000 0.70180  0.15070  0.52920  Biso   1.000  H 
  C172     1.0000 0.78170  0.23100  0.36310  Biso   1.000  C 
  H125     1.0000 0.75920  0.28470  0.35380  Biso   1.000  H 
  C173     1.0000 0.84240  0.19680  0.32560  Biso   1.000  C 
  H126     1.0000 0.85790  0.22640  0.28960  Biso   1.000  H 
  H127     1.0000 0.78490  0.08370  0.46470  Biso   1.000  H 
  C174     1.0000 0.99640  0.87250  0.32070  Biso   1.000  C 
  N46      1.0000 0.05640  0.85040  0.36100  Biso   1.000  N 
  N47      1.0000 0.07520  0.76860  0.38280  Biso   1.000  N 
  H128     1.0000 0.02640  0.73990  0.38840  Biso   1.000  H 
  H129     1.0000 0.10790  0.74100  0.35530  Biso   1.000  H 
  C175     1.0000 0.93980  0.80990  0.29090  Biso   1.000  C 
  C176     1.0000 0.87310  0.77780  0.32350  Biso   1.000  C 
  H130     1.0000 0.86390  0.79640  0.36420  Biso   1.000  H 
  C177     1.0000 0.81870  0.71860  0.29800  Biso   1.000  C 
  C178     1.0000 0.83390  0.69170  0.23870  Biso   1.000  C 
  H131     1.0000 0.79820  0.65070  0.22080  Biso   1.000  H 
  C179     1.0000 0.89950  0.72340  0.20570  Biso   1.000  C 
  H132     1.0000 0.90720  0.70560  0.16470  Biso   1.000  H 
  C180     1.0000 0.95520  0.78120  0.23080  Biso   1.000  C 
  H133     1.0000 0.00210  0.80080  0.20820  Biso   1.000  H 
  C181     1.0000 0.74700  0.68800  0.33570  Biso   1.000  C 
  C182     1.0000 0.71830  0.73100  0.38690  Biso   1.000  C 
  C183     1.0000 0.65760  0.69680  0.42440  Biso   1.000  C 
  N48      1.0000 0.61950  0.62300  0.41200  Biso   1.000  N 
  C184     1.0000 0.63970  0.58590  0.36150  Biso   1.000  C 
  H134     1.0000 0.61000  0.53640  0.35070  Biso   1.000  H 
  C185     1.0000 0.70260  0.61410  0.32150  Biso   1.000  C 
  H135     1.0000 0.71510  0.58370  0.28530  Biso   1.000  H 
  H136     1.0000 0.64210  0.72640  0.46040  Biso   1.000  H 
  H137     1.0000 0.74080  0.78470  0.39620  Biso   1.000  H 
  C186     1.0000 0.95480  0.29120  0.49090  Biso   1.000  C 
  H138     1.0000 0.96230  0.33450  0.46160  Biso   1.000  H 
  C187     1.0000 0.01330  0.22870  0.49650  Biso   1.000  C 
  H139     1.0000 0.06210  0.23010  0.47160  Biso   1.000  H 
  C188     1.0000 0.00280  0.16390  0.53760  Biso   1.000  C 
  H140     1.0000 0.04430  0.12130  0.54090  Biso   1.000  H 
  C189     1.0000 0.78120  0.95520  0.76920  Biso   1.000  C 
  H141     1.0000 0.80080  0.00210  0.79180  Biso   1.000  H 
  C190     1.0000 0.72340  0.89950  0.79430  Biso   1.000  C 
  H142     1.0000 0.70560  0.90720  0.83530  Biso   1.000  H 
  C191     1.0000 0.69170  0.83390  0.76130  Biso   1.000  C 
  H143     1.0000 0.65070  0.79820  0.77920  Biso   1.000  H 
  C192     1.0000 0.61410  0.70260  0.67850  Biso   1.000  C 
  H144     1.0000 0.58370  0.71510  0.71470  Biso   1.000  H 
