data_image0
_cell_length_a       19.1644
_cell_length_b       12.9984
_cell_length_c       21.9013
_cell_angle_alpha    90
_cell_angle_beta     103.141
_cell_angle_gamma    90

_symmetry_space_group_name_H-M    "P 1"
_symmetry_int_tables_number       1

loop_
  _symmetry_equiv_pos_as_xyz
  'x, y, z'

loop_
  _atom_site_label
  _atom_site_occupancy
  _atom_site_fract_x
  _atom_site_fract_y
  _atom_site_fract_z
  _atom_site_thermal_displace_type
  _atom_site_B_iso_or_equiv
  _atom_site_type_symbol
  Zn1      1.0000 0.35908  0.80451  0.34120  Biso   1.000  Zn
  Zn2      1.0000 0.64092  0.30451  0.15880  Biso   1.000  Zn
  Zn3      1.0000 0.64092  0.19549  0.65880  Biso   1.000  Zn
  Zn4      1.0000 0.35908  0.69549  0.84120  Biso   1.000  Zn
  Zn5      1.0000 0.95915  0.73182  0.97496  Biso   1.000  Zn
  Zn6      1.0000 0.04085  0.23182  0.52504  Biso   1.000  Zn
  Zn7      1.0000 0.04085  0.26818  0.02504  Biso   1.000  Zn
  Zn8      1.0000 0.95915  0.76818  0.47496  Biso   1.000  Zn
  Br1      1.0000 0.00074  0.62442  0.90542  Biso   1.000  Br
  Br2      1.0000 0.99926  0.12442  0.59458  Biso   1.000  Br
  Br3      1.0000 0.99926  0.37558  0.09458  Biso   1.000  Br
  Br4      1.0000 0.00074  0.87558  0.40542  Biso   1.000  Br
  Br5      1.0000 0.91000  0.88695  0.94028  Biso   1.000  Br
  Br6      1.0000 0.09000  0.38695  0.55972  Biso   1.000  Br
  Br7      1.0000 0.09000  0.11305  0.05972  Biso   1.000  Br
  Br8      1.0000 0.91000  0.61305  0.44028  Biso   1.000  Br
  N1       1.0000 0.33510  0.71560  0.26100  Biso   1.000  N 
  N2       1.0000 0.66490  0.21560  0.23900  Biso   1.000  N 
  N3       1.0000 0.66490  0.28440  0.73900  Biso   1.000  N 
  N4       1.0000 0.33510  0.78440  0.76100  Biso   1.000  N 
  N5       1.0000 0.25690  0.86830  0.31460  Biso   1.000  N 
  N6       1.0000 0.74310  0.36830  0.18540  Biso   1.000  N 
  N7       1.0000 0.74310  0.13170  0.68540  Biso   1.000  N 
  N8       1.0000 0.25690  0.63170  0.81460  Biso   1.000  N 
  N9       1.0000 0.44300  0.70450  0.37680  Biso   1.000  N 
  N10      1.0000 0.55700  0.20450  0.12320  Biso   1.000  N 
  N11      1.0000 0.55700  0.29550  0.62320  Biso   1.000  N 
  N12      1.0000 0.44300  0.79550  0.87680  Biso   1.000  N 
  N13      1.0000 0.36560  0.86020  0.43090  Biso   1.000  N 
  N14      1.0000 0.63440  0.36020  0.06910  Biso   1.000  N 
  N15      1.0000 0.63440  0.13980  0.56910  Biso   1.000  N 
  N16      1.0000 0.36560  0.63980  0.93090  Biso   1.000  N 
  C1       1.0000 0.38440  0.65450  0.24070  Biso   1.000  C 
  C2       1.0000 0.61560  0.15450  0.25930  Biso   1.000  C 
  C3       1.0000 0.61560  0.34550  0.75930  Biso   1.000  C 
  C4       1.0000 0.38440  0.84550  0.74070  Biso   1.000  C 
  C5       1.0000 0.35950  0.63770  0.17380  Biso   1.000  C 
  C6       1.0000 0.64050  0.13770  0.32620  Biso   1.000  C 
  C7       1.0000 0.64050  0.36230  0.82620  Biso   1.000  C 
  C8       1.0000 0.35950  0.86230  0.67380  Biso   1.000  C 
  H1       1.0000 0.38420  0.60140  0.14750  Biso   1.000  H 
  H2       1.0000 0.61580  0.10140  0.35250  Biso   1.000  H 
  H3       1.0000 0.61580  0.39860  0.85250  Biso   1.000  H 
  H4       1.0000 0.38420  0.89860  0.64750  Biso   1.000  H 
  C9       1.0000 0.29530  0.68270  0.15580  Biso   1.000  C 
  C10      1.0000 0.70470  0.18270  0.34420  Biso   1.000  C 
  C11      1.0000 0.70470  0.31730  0.84420  Biso   1.000  C 
  C12      1.0000 0.29530  0.81730  0.65580  Biso   1.000  C 
  H5       1.0000 0.26540  0.68210  0.11470  Biso   1.000  H 
  H6       1.0000 0.73460  0.18210  0.38530  Biso   1.000  H 
  H7       1.0000 0.73460  0.31790  0.88530  Biso   1.000  H 
  H8       1.0000 0.26540  0.81790  0.61470  Biso   1.000  H 
  C13      1.0000 0.27980  0.73120  0.20910  Biso   1.000  C 
  C14      1.0000 0.72020  0.23120  0.29090  Biso   1.000  C 
  C15      1.0000 0.72020  0.26880  0.79090  Biso   1.000  C 
  C16      1.0000 0.27980  0.76880  0.70910  Biso   1.000  C 
  C17      1.0000 0.21760  0.78870  0.21000  Biso   1.000  C 
  C18      1.0000 0.78240  0.28870  0.29000  Biso   1.000  C 
  C19      1.0000 0.78240  0.21130  0.79000  Biso   1.000  C 
  C20      1.0000 0.21760  0.71130  0.71000  Biso   1.000  C 
  C21      1.0000 0.20660  0.84980  0.26030  Biso   1.000  C 
  C22      1.0000 0.79340  0.34980  0.23970  Biso   1.000  C 
  C23      1.0000 0.79340  0.15020  0.73970  Biso   1.000  C 
  C24      1.0000 0.20660  0.65020  0.76030  Biso   1.000  C 
  C25      1.0000 0.14130  0.89940  0.26330  Biso   1.000  C 
  C26      1.0000 0.85870  0.39940  0.23670  Biso   1.000  C 
  C27      1.0000 0.85870  0.10060  0.73670  Biso   1.000  C 
  C28      1.0000 0.14130  0.60060  0.76330  Biso   1.000  C 
  H9       1.0000 0.09830  0.89890  0.23160  Biso   1.000  H 
  H10      1.0000 0.90170  0.39890  0.26840  Biso   1.000  H 
  H11      1.0000 0.90170  0.10110  0.76840  Biso   1.000  H 
  H12      1.0000 0.09830  0.60110  0.73160  Biso   1.000  H 
  C29      1.0000 0.15130  0.94700  0.31880  Biso   1.000  C 
  C30      1.0000 0.84870  0.44700  0.18120  Biso   1.000  C 
  C31      1.0000 0.84870  0.05300  0.68120  Biso   1.000  C 
  C32      1.0000 0.15130  0.55300  0.81880  Biso   1.000  C 
  H13      1.0000 0.11670  0.98560  0.33410  Biso   1.000  H 
  H14      1.0000 0.88330  0.48560  0.16590  Biso   1.000  H 
  H15      1.0000 0.88330  0.01440  0.66590  Biso   1.000  H 
  H16      1.0000 0.11670  0.51440  0.83410  Biso   1.000  H 
  C33      1.0000 0.22470  0.92850  0.35120  Biso   1.000  C 
  C34      1.0000 0.77530  0.42850  0.14880  Biso   1.000  C 
  C35      1.0000 0.77530  0.07150  0.64880  Biso   1.000  C 
  C36      1.0000 0.22470  0.57150  0.85120  Biso   1.000  C 
  C37      1.0000 0.25580  0.96290  0.41250  Biso   1.000  C 
  C38      1.0000 0.74420  0.46290  0.08750  Biso   1.000  C 
  C39      1.0000 0.74420  0.03710  0.58750  Biso   1.000  C 
  C40      1.0000 0.25580  0.53710  0.91250  Biso   1.000  C 
  C41      1.0000 0.32190  0.93070  0.44810  Biso   1.000  C 
  C42      1.0000 0.67810  0.43070  0.05190  Biso   1.000  C 
  C43      1.0000 0.67810  0.06930  0.55190  Biso   1.000  C 
  C44      1.0000 0.32190  0.56930  0.94810  Biso   1.000  C 
  C45      1.0000 0.35470  0.96760  0.51200  Biso   1.000  C 
  C46      1.0000 0.64530  0.46760  0.98800  Biso   1.000  C 
  C47      1.0000 0.64530  0.03240  0.48800  Biso   1.000  C 
  C48      1.0000 0.35470  0.53240  0.01200  Biso   1.000  C 
  H17      1.0000 0.33660  0.01900  0.53520  Biso   1.000  H 
  H18      1.0000 0.66340  0.51900  0.96480  Biso   1.000  H 
  H19      1.0000 0.66340  0.98100  0.46480  Biso   1.000  H 
  H20      1.0000 0.33660  0.48100  0.03520  Biso   1.000  H 
  C49      1.0000 0.41540  0.91320  0.53060  Biso   1.000  C 
  C50      1.0000 0.58460  0.41320  0.96940  Biso   1.000  C 
  C51      1.0000 0.58460  0.08680  0.46940  Biso   1.000  C 
  C52      1.0000 0.41540  0.58680  0.03060  Biso   1.000  C 
  H21      1.0000 0.44830  0.91910  0.57000  Biso   1.000  H 
  H22      1.0000 0.55170  0.41910  0.93000  Biso   1.000  H 
  H23      1.0000 0.55170  0.08090  0.43000  Biso   1.000  H 
  H24      1.0000 0.44830  0.58090  0.07000  Biso   1.000  H 
  C53      1.0000 0.42210  0.84520  0.48140  Biso   1.000  C 
  C54      1.0000 0.57790  0.34520  0.01860  Biso   1.000  C 
  C55      1.0000 0.57790  0.15480  0.51860  Biso   1.000  C 
  C56      1.0000 0.42210  0.65480  0.98140  Biso   1.000  C 
  C57      1.0000 0.47650  0.77080  0.48550  Biso   1.000  C 
  C58      1.0000 0.52350  0.27080  0.01450  Biso   1.000  C 
  C59      1.0000 0.52350  0.22920  0.51450  Biso   1.000  C 
  C60      1.0000 0.47650  0.72920  0.98550  Biso   1.000  C 
  C61      1.0000 0.48400  0.70280  0.43720  Biso   1.000  C 
  C62      1.0000 0.51600  0.20280  0.06280  Biso   1.000  C 
  C63      1.0000 0.51600  0.29720  0.56280  Biso   1.000  C 
  C64      1.0000 0.48400  0.79720  0.93720  Biso   1.000  C 
  C65      1.0000 0.53750  0.62710  0.44210  Biso   1.000  C 
  C66      1.0000 0.46250  0.12710  0.05790  Biso   1.000  C 
  C67      1.0000 0.46250  0.37290  0.55790  Biso   1.000  C 
  C68      1.0000 0.53750  0.87290  0.94210  Biso   1.000  C 
  H25      1.0000 0.57180  0.60910  0.47910  Biso   1.000  H 
  H26      1.0000 0.42820  0.10910  0.02090  Biso   1.000  H 
  H27      1.0000 0.42820  0.39090  0.52090  Biso   1.000  H 
  H28      1.0000 0.57180  0.89090  0.97910  Biso   1.000  H 
  C69      1.0000 0.53130  0.58480  0.38490  Biso   1.000  C 
  C70      1.0000 0.46870  0.08480  0.11510  Biso   1.000  C 
  C71      1.0000 0.46870  0.41520  0.61510  Biso   1.000  C 
  C72      1.0000 0.53130  0.91520  0.88490  Biso   1.000  C 
  H29      1.0000 0.56080  0.53210  0.37410  Biso   1.000  H 
  H30      1.0000 0.43920  0.03210  0.12590  Biso   1.000  H 
  H31      1.0000 0.43920  0.46790  0.62590  Biso   1.000  H 
  H32      1.0000 0.56080  0.96790  0.87410  Biso   1.000  H 
  C73      1.0000 0.47080  0.63510  0.34240  Biso   1.000  C 
  C74      1.0000 0.52920  0.13510  0.15760  Biso   1.000  C 
  C75      1.0000 0.52920  0.36490  0.65760  Biso   1.000  C 
  C76      1.0000 0.47080  0.86490  0.84240  Biso   1.000  C 
  C77      1.0000 0.44690  0.61520  0.27880  Biso   1.000  C 
  C78      1.0000 0.55310  0.11520  0.22120  Biso   1.000  C 
  C79      1.0000 0.55310  0.38480  0.72120  Biso   1.000  C 
  C80      1.0000 0.44690  0.88480  0.77880  Biso   1.000  C 
  N17      1.0000 0.03930  0.75290  0.05320  Biso   1.000  N 
  N18      1.0000 0.96070  0.25290  0.44680  Biso   1.000  N 
  N19      1.0000 0.96070  0.24710  0.94680  Biso   1.000  N 
  N20      1.0000 0.03930  0.74710  0.55320  Biso   1.000  N 
  C81      1.0000 0.06740  0.67190  0.08710  Biso   1.000  C 
  C82      1.0000 0.93260  0.17190  0.41290  Biso   1.000  C 
  C83      1.0000 0.93260  0.32810  0.91290  Biso   1.000  C 
  C84      1.0000 0.06740  0.82810  0.58710  Biso   1.000  C 
  H33      1.0000 0.04730  0.60580  0.07620  Biso   1.000  H 
  H34      1.0000 0.95270  0.10580  0.42380  Biso   1.000  H 
  H35      1.0000 0.95270  0.39420  0.92380  Biso   1.000  H 
  H36      1.0000 0.04730  0.89420  0.57620  Biso   1.000  H 
  C85      1.0000 0.12600  0.68140  0.13820  Biso   1.000  C 
  C86      1.0000 0.87400  0.18140  0.36180  Biso   1.000  C 
  C87      1.0000 0.87400  0.31860  0.86180  Biso   1.000  C 
  C88      1.0000 0.12600  0.81860  0.63820  Biso   1.000  C 
  H37      1.0000 0.14500  0.62260  0.16200  Biso   1.000  H 
  H38      1.0000 0.85500  0.12260  0.33800  Biso   1.000  H 
  H39      1.0000 0.85500  0.37740  0.83800  Biso   1.000  H 
  H40      1.0000 0.14500  0.87740  0.66200  Biso   1.000  H 
  C89      1.0000 0.15600  0.77870  0.15400  Biso   1.000  C 
  C90      1.0000 0.84400  0.27870  0.34600  Biso   1.000  C 
  C91      1.0000 0.84400  0.22130  0.84600  Biso   1.000  C 
  C92      1.0000 0.15600  0.72130  0.65400  Biso   1.000  C 
  C93      1.0000 0.12530  0.86170  0.11990  Biso   1.000  C 
  C94      1.0000 0.87470  0.36170  0.38010  Biso   1.000  C 
  C95      1.0000 0.87470  0.13830  0.88010  Biso   1.000  C 
  C96      1.0000 0.12530  0.63830  0.61990  Biso   1.000  C 
  H41      1.0000 0.14310  0.92920  0.13020  Biso   1.000  H 
  H42      1.0000 0.85690  0.42920  0.36980  Biso   1.000  H 
  H43      1.0000 0.85690  0.07080  0.86980  Biso   1.000  H 
  H44      1.0000 0.14310  0.57080  0.63020  Biso   1.000  H 
  C97      1.0000 0.06750  0.84490  0.06970  Biso   1.000  C 
  C98      1.0000 0.93250  0.34490  0.43030  Biso   1.000  C 
  C99      1.0000 0.93250  0.15510  0.93030  Biso   1.000  C 
  C100     1.0000 0.06750  0.65510  0.56970  Biso   1.000  C 
  H45      1.0000 0.04680  0.90280  0.04580  Biso   1.000  H 
  H46      1.0000 0.95320  0.40280  0.45420  Biso   1.000  H 
  H47      1.0000 0.95320  0.09720  0.95420  Biso   1.000  H 
  H48      1.0000 0.04680  0.59720  0.54580  Biso   1.000  H 
  N21      1.0000 0.11600  0.15040  0.49180  Biso   1.000  N 
  N22      1.0000 0.88400  0.65040  0.00820  Biso   1.000  N 
  N23      1.0000 0.88400  0.84960  0.50820  Biso   1.000  N 
  N24      1.0000 0.11600  0.34960  0.99180  Biso   1.000  N 
  C101     1.0000 0.14220  0.06300  0.51830  Biso   1.000  C 
  C102     1.0000 0.85780  0.56300  0.98170  Biso   1.000  C 
  C103     1.0000 0.85780  0.93700  0.48170  Biso   1.000  C 
  C104     1.0000 0.14220  0.43700  0.01830  Biso   1.000  C 
  H49      1.0000 0.12830  0.04170  0.55530  Biso   1.000  H 
  H50      1.0000 0.87170  0.54170  0.94470  Biso   1.000  H 
  H51      1.0000 0.87170  0.95830  0.44470  Biso   1.000  H 
  H52      1.0000 0.12830  0.45830  0.05530  Biso   1.000  H 
  C105     1.0000 0.18790  0.00160  0.49540  Biso   1.000  C 
  C106     1.0000 0.81210  0.50160  0.00460  Biso   1.000  C 
  C107     1.0000 0.81210  0.99840  0.50460  Biso   1.000  C 
  C108     1.0000 0.18790  0.49840  0.99540  Biso   1.000  C 
  H53      1.0000 0.20470  0.93920  0.51620  Biso   1.000  H 
  H54      1.0000 0.79530  0.43920  0.98380  Biso   1.000  H 
  H55      1.0000 0.79530  0.06080  0.48380  Biso   1.000  H 
  H56      1.0000 0.20470  0.56080  0.01620  Biso   1.000  H 
  C109     1.0000 0.21010  0.03000  0.44170  Biso   1.000  C 
  C110     1.0000 0.78990  0.53000  0.05830  Biso   1.000  C 
  C111     1.0000 0.78990  0.97000  0.55830  Biso   1.000  C 
  C112     1.0000 0.21010  0.47000  0.94170  Biso   1.000  C 
  C113     1.0000 0.18430  0.12450  0.41570  Biso   1.000  C 
  C114     1.0000 0.81570  0.62450  0.08430  Biso   1.000  C 
  C115     1.0000 0.81570  0.87550  0.58430  Biso   1.000  C 
  C116     1.0000 0.18430  0.37550  0.91570  Biso   1.000  C 
  H57      1.0000 0.19900  0.14970  0.37990  Biso   1.000  H 
  H58      1.0000 0.80100  0.64970  0.12010  Biso   1.000  H 
  H59      1.0000 0.80100  0.85030  0.62010  Biso   1.000  H 
  H60      1.0000 0.19900  0.35030  0.87990  Biso   1.000  H 
  C117     1.0000 0.13780  0.18130  0.44150  Biso   1.000  C 
  C118     1.0000 0.86220  0.68130  0.05850  Biso   1.000  C 
  C119     1.0000 0.86220  0.81870  0.55850  Biso   1.000  C 
  C120     1.0000 0.13780  0.31870  0.94150  Biso   1.000  C 
  H61      1.0000 0.12070  0.24500  0.42260  Biso   1.000  H 
  H62      1.0000 0.87930  0.74500  0.07740  Biso   1.000  H 
  H63      1.0000 0.87930  0.75500  0.57740  Biso   1.000  H 
  H64      1.0000 0.12070  0.25500  0.92260  Biso   1.000  H 
  N25      1.0000 0.62630  0.72930  0.65920  Biso   1.000  N 
  N26      1.0000 0.37370  0.22930  0.84080  Biso   1.000  N 
  N27      1.0000 0.37370  0.27070  0.34080  Biso   1.000  N 
  N28      1.0000 0.62630  0.77070  0.15920  Biso   1.000  N 
  C121     1.0000 0.57830  0.65770  0.63630  Biso   1.000  C 
  C122     1.0000 0.42170  0.15770  0.86370  Biso   1.000  C 
  C123     1.0000 0.42170  0.34230  0.36370  Biso   1.000  C 
  C124     1.0000 0.57830  0.84230  0.13630  Biso   1.000  C 
  H65      1.0000 0.57870  0.59650  0.66010  Biso   1.000  H 
  H66      1.0000 0.42130  0.09650  0.83990  Biso   1.000  H 
  H67      1.0000 0.42130  0.40350  0.33990  Biso   1.000  H 
  H68      1.0000 0.57870  0.90350  0.16010  Biso   1.000  H 
  C125     1.0000 0.52810  0.66530  0.58080  Biso   1.000  C 
  C126     1.0000 0.47190  0.16530  0.91920  Biso   1.000  C 
  C127     1.0000 0.47190  0.33470  0.41920  Biso   1.000  C 
  C128     1.0000 0.52810  0.83470  0.08080  Biso   1.000  C 
  H69      1.0000 0.49620  0.61030  0.56560  Biso   1.000  H 
  H70      1.0000 0.50380  0.11030  0.93440  Biso   1.000  H 
  H71      1.0000 0.50380  0.38970  0.43440  Biso   1.000  H 
  H72      1.0000 0.49620  0.88970  0.06560  Biso   1.000  H 
  C129     1.0000 0.57940  0.82950  0.56870  Biso   1.000  C 
  C130     1.0000 0.42060  0.32950  0.93130  Biso   1.000  C 
  C131     1.0000 0.42060  0.17050  0.43130  Biso   1.000  C 
  C132     1.0000 0.57940  0.67050  0.06870  Biso   1.000  C 
  H73      1.0000 0.58280  0.88890  0.54430  Biso   1.000  H 
  H74      1.0000 0.41720  0.38890  0.95570  Biso   1.000  H 
  H75      1.0000 0.41720  0.11110  0.45570  Biso   1.000  H 
  H76      1.0000 0.58280  0.61110  0.04430  Biso   1.000  H 
  C133     1.0000 0.62620  0.81380  0.62450  Biso   1.000  C 
  C134     1.0000 0.37380  0.31380  0.87550  Biso   1.000  C 
  C135     1.0000 0.37380  0.18620  0.37550  Biso   1.000  C 
  C136     1.0000 0.62620  0.68620  0.12450  Biso   1.000  C 
  H77      1.0000 0.66080  0.86560  0.63970  Biso   1.000  H 
  H78      1.0000 0.33920  0.36560  0.86030  Biso   1.000  H 
  H79      1.0000 0.33920  0.13440  0.36030  Biso   1.000  H 
  H80      1.0000 0.66080  0.63440  0.13970  Biso   1.000  H 
  C137     1.0000 0.52590  0.75580  0.54810  Biso   1.000  C 
  C138     1.0000 0.47410  0.25580  0.95190  Biso   1.000  C 
  C139     1.0000 0.47410  0.24420  0.45190  Biso   1.000  C 
  C140     1.0000 0.52590  0.74420  0.04810  Biso   1.000  C 
  N29      1.0000 0.57490  0.41340  0.19370  Biso   1.000  N 
  N30      1.0000 0.42510  0.91340  0.30630  Biso   1.000  N 
  N31      1.0000 0.42510  0.58660  0.80630  Biso   1.000  N 
  N32      1.0000 0.57490  0.08660  0.69370  Biso   1.000  N 
  C141     1.0000 0.60250  0.49500  0.22560  Biso   1.000  C 
  C142     1.0000 0.39750  0.99500  0.27440  Biso   1.000  C 
  C143     1.0000 0.39750  0.50500  0.77440  Biso   1.000  C 
  C144     1.0000 0.60250  0.00500  0.72560  Biso   1.000  C 
  H81      1.0000 0.65220  0.50790  0.23010  Biso   1.000  H 
  H82      1.0000 0.34780  0.00790  0.26990  Biso   1.000  H 
  H83      1.0000 0.34780  0.49210  0.76990  Biso   1.000  H 
  H84      1.0000 0.65220  0.99210  0.73010  Biso   1.000  H 
  C145     1.0000 0.56360  0.56280  0.25280  Biso   1.000  C 
  C146     1.0000 0.43640  0.06280  0.24720  Biso   1.000  C 
  C147     1.0000 0.43640  0.43720  0.74720  Biso   1.000  C 
  C148     1.0000 0.56360  0.93720  0.75280  Biso   1.000  C 
  H85      1.0000 0.58640  0.62160  0.27420  Biso   1.000  H 
  H86      1.0000 0.41360  0.12160  0.22580  Biso   1.000  H 
  H87      1.0000 0.41360  0.37840  0.72580  Biso   1.000  H 
  H88      1.0000 0.58640  0.87840  0.77420  Biso   1.000  H 
  C149     1.0000 0.49150  0.54610  0.24930  Biso   1.000  C 
  C150     1.0000 0.50850  0.04610  0.25070  Biso   1.000  C 
  C151     1.0000 0.50850  0.45390  0.75070  Biso   1.000  C 
  C152     1.0000 0.49150  0.95390  0.74930  Biso   1.000  C 
  C153     1.0000 0.46190  0.45820  0.21530  Biso   1.000  C 
  C154     1.0000 0.53810  0.95820  0.28470  Biso   1.000  C 
  C155     1.0000 0.53810  0.54180  0.78470  Biso   1.000  C 
  C156     1.0000 0.46190  0.04180  0.71530  Biso   1.000  C 
  H89      1.0000 0.41270  0.44190  0.21100  Biso   1.000  H 
  H90      1.0000 0.58730  0.94190  0.28900  Biso   1.000  H 
  H91      1.0000 0.58730  0.55810  0.78900  Biso   1.000  H 
  H92      1.0000 0.41270  0.05810  0.71100  Biso   1.000  H 
  C157     1.0000 0.50460  0.39630  0.18860  Biso   1.000  C 
  C158     1.0000 0.49540  0.89630  0.31140  Biso   1.000  C 
  C159     1.0000 0.49540  0.60370  0.81140  Biso   1.000  C 
  C160     1.0000 0.50460  0.10370  0.68860  Biso   1.000  C 
  H93      1.0000 0.48350  0.33820  0.16530  Biso   1.000  H 
  H94      1.0000 0.51650  0.83820  0.33470  Biso   1.000  H 
  H95      1.0000 0.51650  0.66180  0.83470  Biso   1.000  H 
  H96      1.0000 0.48350  0.16180  0.66530  Biso   1.000  H 
  Cl1      1.0000 0.98786  0.71920  0.24274  Biso   1.000  Cl
  Cl2      1.0000 0.01214  0.21920  0.25726  Biso   1.000  Cl
  Cl3      1.0000 0.01214  0.28080  0.75726  Biso   1.000  Cl
  Cl4      1.0000 0.98786  0.78080  0.74274  Biso   1.000  Cl
  Cl5      1.0000 0.02700  0.50290  0.23657  Biso   1.000  Cl
  Cl6      1.0000 0.97300  0.00290  0.26343  Biso   1.000  Cl
  Cl7      1.0000 0.97300  0.49710  0.76343  Biso   1.000  Cl
  Cl8      1.0000 0.02700  0.99710  0.73657  Biso   1.000  Cl
  Cl9      1.0000 0.14829  0.64691  0.31984  Biso   1.000  Cl
  Cl10     1.0000 0.85171  0.14691  0.18016  Biso   1.000  Cl
  Cl11     1.0000 0.85171  0.35309  0.68016  Biso   1.000  Cl
  Cl12     1.0000 0.14829  0.85309  0.81984  Biso   1.000  Cl
  Cl13     1.0000 0.07320  0.50710  0.39024  Biso   1.000  Cl
  Cl14     1.0000 0.92680  0.00710  0.10976  Biso   1.000  Cl
  Cl15     1.0000 0.92680  0.49290  0.60976  Biso   1.000  Cl
  Cl16     1.0000 0.07320  0.99290  0.89024  Biso   1.000  Cl
  C161     1.0000 0.00700  0.60370  0.28440  Biso   1.000  C 
  C162     1.0000 0.99300  0.10370  0.21560  Biso   1.000  C 
  C163     1.0000 0.99300  0.39630  0.71560  Biso   1.000  C 
  C164     1.0000 0.00700  0.89630  0.78440  Biso   1.000  C 
  H97      1.0000 0.96350  0.58330  0.29950  Biso   1.000  H 
  H98      1.0000 0.03650  0.08330  0.20050  Biso   1.000  H 
  H99      1.0000 0.03650  0.41670  0.70050  Biso   1.000  H 
  H100     1.0000 0.96350  0.91670  0.79950  Biso   1.000  H 
  C165     1.0000 0.06500  0.62430  0.33980  Biso   1.000  C 
  C166     1.0000 0.93500  0.12430  0.16020  Biso   1.000  C 
  C167     1.0000 0.93500  0.37570  0.66020  Biso   1.000  C 
  C168     1.0000 0.06500  0.87570  0.83980  Biso   1.000  C 
  H101     1.0000 0.05210  0.68490  0.36310  Biso   1.000  H 
  H102     1.0000 0.94790  0.18490  0.13690  Biso   1.000  H 
  H103     1.0000 0.94790  0.31510  0.63690  Biso   1.000  H 
  H104     1.0000 0.05210  0.81510  0.86310  Biso   1.000  H 
  Cl17     1.0000 0.79381  0.86850  0.76866  Biso   1.000  Cl
  Cl18     1.0000 0.20619  0.36850  0.73134  Biso   1.000  Cl
  Cl19     1.0000 0.20619  0.13150  0.23134  Biso   1.000  Cl
  Cl20     1.0000 0.79381  0.63150  0.26866  Biso   1.000  Cl
  Cl21     1.0000 0.72390  0.76910  0.86192  Biso   1.000  Cl
  Cl22     1.0000 0.27610  0.26910  0.63808  Biso   1.000  Cl
  Cl23     1.0000 0.27610  0.23090  0.13808  Biso   1.000  Cl
  Cl24     1.0000 0.72390  0.73090  0.36192  Biso   1.000  Cl
  Cl25     1.0000 0.81574  0.65350  0.71430  Biso   1.000  Cl
  Cl26     1.0000 0.18426  0.15350  0.78570  Biso   1.000  Cl
  Cl27     1.0000 0.18426  0.34650  0.28570  Biso   1.000  Cl
  Cl28     1.0000 0.81574  0.84650  0.21430  Biso   1.000  Cl
  Cl29     1.0000 0.75150  0.55420  0.80740  Biso   1.000  Cl
  Cl30     1.0000 0.24850  0.05420  0.69260  Biso   1.000  Cl
  Cl31     1.0000 0.24850  0.44580  0.19260  Biso   1.000  Cl
  Cl32     1.0000 0.75150  0.94580  0.30740  Biso   1.000  Cl
  C169     1.0000 0.78040  0.75110  0.80790  Biso   1.000  C 
  C170     1.0000 0.21960  0.25110  0.69210  Biso   1.000  C 
  C171     1.0000 0.21960  0.24890  0.19210  Biso   1.000  C 
  C172     1.0000 0.78040  0.74890  0.30790  Biso   1.000  C 
  H105     1.0000 0.82860  0.73280  0.83430  Biso   1.000  H 
  H106     1.0000 0.17140  0.23280  0.66570  Biso   1.000  H 
  H107     1.0000 0.17140  0.26720  0.16570  Biso   1.000  H 
  H108     1.0000 0.82860  0.76720  0.33430  Biso   1.000  H 
  C173     1.0000 0.76230  0.67610  0.77230  Biso   1.000  C 
  C174     1.0000 0.23770  0.17610  0.72770  Biso   1.000  C 
  C175     1.0000 0.23770  0.32390  0.22770  Biso   1.000  C 
  C176     1.0000 0.76230  0.82390  0.27230  Biso   1.000  C 
  H109     1.0000 0.71350  0.69400  0.74710  Biso   1.000  H 
  H110     1.0000 0.28650  0.19400  0.75290  Biso   1.000  H 
  H111     1.0000 0.28650  0.30600  0.25290  Biso   1.000  H 
  H112     1.0000 0.71350  0.80600  0.24710  Biso   1.000  H 
  Cl33     1.0000 0.70394  0.43830  0.41655  Biso   1.000  Cl
  Cl34     1.0000 0.29606  0.93830  0.08345  Biso   1.000  Cl
  Cl35     1.0000 0.29606  0.56170  0.58345  Biso   1.000  Cl
  Cl36     1.0000 0.70394  0.06170  0.91655  Biso   1.000  Cl
  Cl37     1.0000 0.78919  0.30013  0.51248  Biso   1.000  Cl
  Cl38     1.0000 0.21081  0.80013  0.98752  Biso   1.000  Cl
  Cl39     1.0000 0.21081  0.69987  0.48752  Biso   1.000  Cl
  Cl40     1.0000 0.78919  0.19987  0.01248  Biso   1.000  Cl
  Cl41     1.0000 0.65933  0.42950  0.55375  Biso   1.000  Cl
  Cl42     1.0000 0.34067  0.92950  0.94625  Biso   1.000  Cl
  Cl43     1.0000 0.34067  0.57050  0.44625  Biso   1.000  Cl
  Cl44     1.0000 0.65933  0.07050  0.05375  Biso   1.000  Cl
  Cl45     1.0000 0.73312  0.61609  0.52710  Biso   1.000  Cl
  Cl46     1.0000 0.26688  0.11609  0.97290  Biso   1.000  Cl
  Cl47     1.0000 0.26688  0.38391  0.47290  Biso   1.000  Cl
  Cl48     1.0000 0.73312  0.88391  0.02710  Biso   1.000  Cl
  C177     1.0000 0.76390  0.43150  0.49270  Biso   1.000  C 
  C178     1.0000 0.23610  0.93150  0.00730  Biso   1.000  C 
  C179     1.0000 0.23610  0.56850  0.50730  Biso   1.000  C 
  C180     1.0000 0.76390  0.06850  0.99270  Biso   1.000  C 
  H113     1.0000 0.80870  0.46780  0.48890  Biso   1.000  H 
  H114     1.0000 0.19130  0.96780  0.01110  Biso   1.000  H 
  H115     1.0000 0.19130  0.53220  0.51110  Biso   1.000  H 
  H116     1.0000 0.80870  0.03220  0.98890  Biso   1.000  H 
  C181     1.0000 0.74160  0.47880  0.54410  Biso   1.000  C 
  C182     1.0000 0.25840  0.97880  0.95590  Biso   1.000  C 
  C183     1.0000 0.25840  0.52120  0.45590  Biso   1.000  C 
  C184     1.0000 0.74160  0.02120  0.04410  Biso   1.000  C 
  H117     1.0000 0.77910  0.46770  0.58350  Biso   1.000  H 
  H118     1.0000 0.22090  0.96770  0.91650  Biso   1.000  H 
  H119     1.0000 0.22090  0.53230  0.41650  Biso   1.000  H 
  H120     1.0000 0.77910  0.03230  0.08350  Biso   1.000  H 
