data_image0
_cell_length_a       11.3361
_cell_length_b       11.3717
_cell_length_c       8.3386
_cell_angle_alpha    90
_cell_angle_beta     90
_cell_angle_gamma    90

_symmetry_space_group_name_H-M    "P 1"
_symmetry_int_tables_number       1

loop_
  _symmetry_equiv_pos_as_xyz
  'x, y, z'

loop_
  _atom_site_label
  _atom_site_occupancy
  _atom_site_fract_x
  _atom_site_fract_y
  _atom_site_fract_z
  _atom_site_thermal_displace_type
  _atom_site_B_iso_or_equiv
  _atom_site_type_symbol
  C1       1.0000 0.75895  0.20718  0.00000  Biso   1.000  C 
  C2       1.0000 0.24105  0.79282  0.00000  Biso   1.000  C 
  C3       1.0000 0.74105  0.70718  0.50000  Biso   1.000  C 
  C4       1.0000 0.25895  0.29282  0.50000  Biso   1.000  C 
  H1       1.0000 0.77030  0.25340  0.09720  Biso   1.000  H 
  H2       1.0000 0.22970  0.74660  0.09720  Biso   1.000  H 
  H3       1.0000 0.72970  0.75340  0.40280  Biso   1.000  H 
  H4       1.0000 0.27030  0.24660  0.40280  Biso   1.000  H 
  H5       1.0000 0.22970  0.74660  0.90280  Biso   1.000  H 
  H6       1.0000 0.77030  0.25340  0.90280  Biso   1.000  H 
  H7       1.0000 0.27030  0.24660  0.59720  Biso   1.000  H 
  H8       1.0000 0.72970  0.75340  0.59720  Biso   1.000  H 
  H9       1.0000 0.81840  0.14570  0.00000  Biso   1.000  H 
  H10      1.0000 0.18160  0.85430  0.00000  Biso   1.000  H 
  H11      1.0000 0.68160  0.64570  0.50000  Biso   1.000  H 
  H12      1.0000 0.31840  0.35430  0.50000  Biso   1.000  H 
  C5       1.0000 0.31352  0.15773  0.00000  Biso   1.000  C 
  C6       1.0000 0.68648  0.84227  0.00000  Biso   1.000  C 
  C7       1.0000 0.18648  0.65773  0.50000  Biso   1.000  C 
  C8       1.0000 0.81352  0.34227  0.50000  Biso   1.000  C 
  H13      1.0000 0.29270  0.20310  0.09510  Biso   1.000  H 
  H14      1.0000 0.70730  0.79690  0.09510  Biso   1.000  H 
  H15      1.0000 0.20730  0.70310  0.40490  Biso   1.000  H 
  H16      1.0000 0.79270  0.29690  0.40490  Biso   1.000  H 
  H17      1.0000 0.70730  0.79690  0.90490  Biso   1.000  H 
  H18      1.0000 0.29270  0.20310  0.90490  Biso   1.000  H 
  H19      1.0000 0.79270  0.29690  0.59510  Biso   1.000  H 
  H20      1.0000 0.20730  0.70310  0.59510  Biso   1.000  H 
  H21      1.0000 0.27000  0.08340  0.00000  Biso   1.000  H 
  H22      1.0000 0.73000  0.91660  0.00000  Biso   1.000  H 
  H23      1.0000 0.23000  0.58340  0.50000  Biso   1.000  H 
  H24      1.0000 0.77000  0.41660  0.50000  Biso   1.000  H 
  C9       1.0000 0.25096  0.48119  0.13723  Biso   1.000  C 
  C10      1.0000 0.74904  0.51881  0.13723  Biso   1.000  C 
  C11      1.0000 0.24904  0.98119  0.36277  Biso   1.000  C 
  C12      1.0000 0.75096  0.01881  0.36277  Biso   1.000  C 
  C13      1.0000 0.74904  0.51881  0.86277  Biso   1.000  C 
  C14      1.0000 0.25096  0.48119  0.86277  Biso   1.000  C 
  C15      1.0000 0.75096  0.01881  0.63723  Biso   1.000  C 
  C16      1.0000 0.24904  0.98119  0.63723  Biso   1.000  C 
  H25      1.0000 0.29310  0.47690  0.23560  Biso   1.000  H 
  H26      1.0000 0.70690  0.52310  0.23560  Biso   1.000  H 
  H27      1.0000 0.20690  0.97690  0.26440  Biso   1.000  H 
  H28      1.0000 0.79310  0.02310  0.26440  Biso   1.000  H 
  H29      1.0000 0.70690  0.52310  0.76440  Biso   1.000  H 
  H30      1.0000 0.29310  0.47690  0.76440  Biso   1.000  H 
  H31      1.0000 0.79310  0.02310  0.73560  Biso   1.000  H 
  H32      1.0000 0.20690  0.97690  0.73560  Biso   1.000  H 
  C17      1.0000 0.12913  0.48801  0.14284  Biso   1.000  C 
  C18      1.0000 0.87087  0.51199  0.14284  Biso   1.000  C 
  C19      1.0000 0.37087  0.98801  0.35716  Biso   1.000  C 
  C20      1.0000 0.62913  0.01199  0.35716  Biso   1.000  C 
  C21      1.0000 0.87087  0.51199  0.85716  Biso   1.000  C 
  C22      1.0000 0.12913  0.48801  0.85716  Biso   1.000  C 
  C23      1.0000 0.62913  0.01199  0.64284  Biso   1.000  C 
  C24      1.0000 0.37087  0.98801  0.64284  Biso   1.000  C 
  H33      1.0000 0.08940  0.48860  0.24310  Biso   1.000  H 
  H34      1.0000 0.91060  0.51140  0.24310  Biso   1.000  H 
  H35      1.0000 0.41060  0.98860  0.25690  Biso   1.000  H 
  H36      1.0000 0.58940  0.01140  0.25690  Biso   1.000  H 
  H37      1.0000 0.91060  0.51140  0.75690  Biso   1.000  H 
  H38      1.0000 0.08940  0.48860  0.75690  Biso   1.000  H 
  H39      1.0000 0.58940  0.01140  0.74310  Biso   1.000  H 
  H40      1.0000 0.41060  0.98860  0.74310  Biso   1.000  H 
  C25      1.0000 0.06502  0.49406  0.00000  Biso   1.000  C 
  C26      1.0000 0.93498  0.50594  0.00000  Biso   1.000  C 
  C27      1.0000 0.43498  0.99406  0.50000  Biso   1.000  C 
  C28      1.0000 0.56502  0.00594  0.50000  Biso   1.000  C 
  N1       1.0000 0.31252  0.48033  0.00000  Biso   1.000  N 
  N2       1.0000 0.68748  0.51967  0.00000  Biso   1.000  N 
  N3       1.0000 0.18748  0.98033  0.50000  Biso   1.000  N 
  N4       1.0000 0.81252  0.01967  0.50000  Biso   1.000  N 
  O1       1.0000 0.64409  0.15238  0.00000  Biso   1.000  O 
  O2       1.0000 0.35591  0.84762  0.00000  Biso   1.000  O 
  O3       1.0000 0.85591  0.65238  0.50000  Biso   1.000  O 
  O4       1.0000 0.14409  0.34762  0.50000  Biso   1.000  O 
  O5       1.0000 0.43802  0.12994  0.00000  Biso   1.000  O 
  O6       1.0000 0.56198  0.87006  0.00000  Biso   1.000  O 
  O7       1.0000 0.06198  0.62994  0.50000  Biso   1.000  O 
  O8       1.0000 0.93802  0.37006  0.50000  Biso   1.000  O 
  P1       1.0000 0.53028  0.23524  0.00000  Biso   1.000  P 
  P2       1.0000 0.46972  0.76476  0.00000  Biso   1.000  P 
  P3       1.0000 0.96972  0.73524  0.50000  Biso   1.000  P 
  P4       1.0000 0.03028  0.26476  0.50000  Biso   1.000  P 
  S1       1.0000 0.51929  0.33195  0.19749  Biso   1.000  S 
  S2       1.0000 0.48071  0.66805  0.19749  Biso   1.000  S 
  S3       1.0000 0.98071  0.83195  0.30251  Biso   1.000  S 
  S4       1.0000 0.01929  0.16805  0.30251  Biso   1.000  S 
  S5       1.0000 0.48071  0.66805  0.80251  Biso   1.000  S 
  S6       1.0000 0.51929  0.33195  0.80251  Biso   1.000  S 
  S7       1.0000 0.01929  0.16805  0.69749  Biso   1.000  S 
  S8       1.0000 0.98071  0.83195  0.69749  Biso   1.000  S 
  Co1      1.0000 0.50000  0.50000  0.00000  Biso   1.000  Co
  Co2      1.0000 0.00000  0.00000  0.50000  Biso   1.000  Co
