data_image0
_cell_length_a       8.2403
_cell_length_b       12.4512
_cell_length_c       19.8409
_cell_angle_alpha    82.888
_cell_angle_beta     84.298
_cell_angle_gamma    72.636

_symmetry_space_group_name_H-M    "P 1"
_symmetry_int_tables_number       1

loop_
  _symmetry_equiv_pos_as_xyz
  'x, y, z'

loop_
  _atom_site_label
  _atom_site_occupancy
  _atom_site_fract_x
  _atom_site_fract_y
  _atom_site_fract_z
  _atom_site_thermal_displace_type
  _atom_site_B_iso_or_equiv
  _atom_site_type_symbol
  Cd1      1.0000 0.09616  0.27143  0.24305  Biso   1.000  Cd
  Cd2      1.0000 0.90384  0.72857  0.75695  Biso   1.000  Cd
  I1       1.0000 0.73475  0.39195  0.23526  Biso   1.000  I 
  I2       1.0000 0.26525  0.60805  0.76474  Biso   1.000  I 
  I3       1.0000 0.46417  0.16230  0.25044  Biso   1.000  I 
  I4       1.0000 0.53583  0.83770  0.74956  Biso   1.000  I 
  O1       1.0000 0.55090  0.73030  0.51310  Biso   1.000  O 
  O2       1.0000 0.44910  0.26970  0.48690  Biso   1.000  O 
  O3       1.0000 0.65690  0.79990  0.98101  Biso   1.000  O 
  O4       1.0000 0.34310  0.20010  0.01899  Biso   1.000  O 
  N1       1.0000 0.20500  0.50380  0.38230  Biso   1.000  N 
  N2       1.0000 0.79500  0.49620  0.61770  Biso   1.000  N 
  N3       1.0000 0.03360  0.52420  0.39690  Biso   1.000  N 
  N4       1.0000 0.96640  0.47580  0.60310  Biso   1.000  N 
  N5       1.0000 0.12660  0.39510  0.32210  Biso   1.000  N 
  N6       1.0000 0.87340  0.60490  0.67790  Biso   1.000  N 
  N7       1.0000 0.93690  0.01230  0.39620  Biso   1.000  N 
  N8       1.0000 0.06310  0.98770  0.60380  Biso   1.000  N 
  N9       1.0000 0.09970  0.99000  0.41290  Biso   1.000  N 
  N10      1.0000 0.90030  0.01000  0.58710  Biso   1.000  N 
  N11      1.0000 0.03340  0.14270  0.33690  Biso   1.000  N 
  N12      1.0000 0.96660  0.85730  0.66310  Biso   1.000  N 
  N13      1.0000 0.00510  0.01400  0.11990  Biso   1.000  N 
  N14      1.0000 0.99490  0.98600  0.88010  Biso   1.000  N 
  N15      1.0000 0.17840  0.97680  0.11780  Biso   1.000  N 
  N16      1.0000 0.82160  0.02320  0.88220  Biso   1.000  N 
  N17      1.0000 0.07970  0.13190  0.17380  Biso   1.000  N 
  N18      1.0000 0.92030  0.86810  0.82620  Biso   1.000  N 
  N19      1.0000 0.25690  0.52410  0.08950  Biso   1.000  N 
  N20      1.0000 0.74310  0.47590  0.91050  Biso   1.000  N 
  N21      1.0000 0.11710  0.52440  0.05750  Biso   1.000  N 
  N22      1.0000 0.88290  0.47560  0.94250  Biso   1.000  N 
  N23      1.0000 0.15470  0.39820  0.15040  Biso   1.000  N 
  N24      1.0000 0.84530  0.60180  0.84960  Biso   1.000  N 
  C1       1.0000 0.99540  0.45700  0.35950  Biso   1.000  C 
  C2       1.0000 0.00460  0.54300  0.64050  Biso   1.000  C 
  H1       1.0000 0.88490  0.45250  0.35890  Biso   1.000  H 
  H2       1.0000 0.11510  0.54750  0.64110  Biso   1.000  H 
  C3       1.0000 0.25670  0.42640  0.33810  Biso   1.000  C 
  C4       1.0000 0.74330  0.57360  0.66190  Biso   1.000  C 
  H3       1.0000 0.36860  0.39830  0.32080  Biso   1.000  H 
  H4       1.0000 0.63140  0.60170  0.67920  Biso   1.000  H 
  C5       1.0000 0.29790  0.56280  0.41370  Biso   1.000  C 
  C6       1.0000 0.70210  0.43720  0.58630  Biso   1.000  C 
  C7       1.0000 0.42290  0.60240  0.37660  Biso   1.000  C 
  C8       1.0000 0.57710  0.39760  0.62340  Biso   1.000  C 
  H5       1.0000 0.44900  0.59050  0.33100  Biso   1.000  H 
  H6       1.0000 0.55100  0.40950  0.66900  Biso   1.000  H 
  C9       1.0000 0.50890  0.66000  0.40840  Biso   1.000  C 
  C10      1.0000 0.49110  0.34000  0.59160  Biso   1.000  C 
  H7       1.0000 0.59470  0.68600  0.38430  Biso   1.000  H 
  H8       1.0000 0.40530  0.31400  0.61570  Biso   1.000  H 
  C11      1.0000 0.46700  0.67890  0.47590  Biso   1.000  C 
  C12      1.0000 0.53300  0.32110  0.52410  Biso   1.000  C 
  C13      1.0000 0.34240  0.63900  0.51250  Biso   1.000  C 
  C14      1.0000 0.65760  0.36100  0.48750  Biso   1.000  C 
  H9       1.0000 0.31530  0.65180  0.55800  Biso   1.000  H 
  H10      1.0000 0.68470  0.34820  0.44200  Biso   1.000  H 
  C15      1.0000 0.25800  0.58020  0.48170  Biso   1.000  C 
  C16      1.0000 0.74200  0.41980  0.51830  Biso   1.000  C 
  H11      1.0000 0.17480  0.55220  0.50640  Biso   1.000  H 
  H12      1.0000 0.82520  0.44780  0.49360  Biso   1.000  H 
  C17      1.0000 0.64670  0.79860  0.47920  Biso   1.000  C 
  C18      1.0000 0.35330  0.20140  0.52080  Biso   1.000  C 
  C19      1.0000 0.56980  0.89900  0.44440  Biso   1.000  C 
  C20      1.0000 0.43020  0.10100  0.55560  Biso   1.000  C 
  H13      1.0000 0.45360  0.91930  0.43850  Biso   1.000  H 
  H14      1.0000 0.54640  0.08070  0.56150  Biso   1.000  H 
  C21      1.0000 0.66520  0.97170  0.41740  Biso   1.000  C 
  C22      1.0000 0.33480  0.02830  0.58260  Biso   1.000  C 
  H15      1.0000 0.61230  0.04150  0.39460  Biso   1.000  H 
  H16      1.0000 0.38770  0.95850  0.60540  Biso   1.000  H 
  C23      1.0000 0.83530  0.94030  0.42460  Biso   1.000  C 
  C24      1.0000 0.16470  0.05970  0.57540  Biso   1.000  C 
  C25      1.0000 0.91230  0.83780  0.45880  Biso   1.000  C 
  C26      1.0000 0.08770  0.16220  0.54120  Biso   1.000  C 
  H17      1.0000 0.02920  0.81550  0.46340  Biso   1.000  H 
  H18      1.0000 0.97080  0.18450  0.53660  Biso   1.000  H 
  C27      1.0000 0.81490  0.76800  0.48640  Biso   1.000  C 
  C28      1.0000 0.18510  0.23200  0.51360  Biso   1.000  C 
  H19      1.0000 0.86670  0.69890  0.51020  Biso   1.000  H 
  H20      1.0000 0.13330  0.30110  0.48980  Biso   1.000  H 
  C29      1.0000 0.14980  0.07080  0.37600  Biso   1.000  C 
  C30      1.0000 0.85020  0.92920  0.62400  Biso   1.000  C 
  H21      1.0000 0.25890  0.07750  0.37690  Biso   1.000  H 
  H22      1.0000 0.74110  0.92250  0.62310  Biso   1.000  H 
  C31      1.0000 0.90040  0.10310  0.35100  Biso   1.000  C 
  C32      1.0000 0.09960  0.89690  0.64900  Biso   1.000  C 
  H23      1.0000 0.79570  0.13440  0.33200  Biso   1.000  H 
  H24      1.0000 0.20430  0.86560  0.66800  Biso   1.000  H 
  C33      1.0000 0.21480  0.05100  0.15060  Biso   1.000  C 
  C34      1.0000 0.78520  0.94900  0.84940  Biso   1.000  C 
  H25      1.0000 0.32620  0.04790  0.15740  Biso   1.000  H 
  H26      1.0000 0.67380  0.95210  0.84260  Biso   1.000  H 
  C35      1.0000 0.95000  0.10630  0.15360  Biso   1.000  C 
  C36      1.0000 0.05000  0.89370  0.84640  Biso   1.000  C 
  H27      1.0000 0.83630  0.14660  0.16150  Biso   1.000  H 
  H28      1.0000 0.16370  0.85340  0.83850  Biso   1.000  H 
  C37      1.0000 0.91320  0.95600  0.08740  Biso   1.000  C 
  C38      1.0000 0.08680  0.04400  0.91260  Biso   1.000  C 
  C39      1.0000 0.00270  0.86770  0.05020  Biso   1.000  C 
  C40      1.0000 0.99730  0.13230  0.94980  Biso   1.000  C 
  H29      1.0000 0.12120  0.84480  0.04730  Biso   1.000  H 
  H30      1.0000 0.87880  0.15520  0.95270  Biso   1.000  H 
  C41      1.0000 0.91480  0.81390  0.01750  Biso   1.000  C 
  C42      1.0000 0.08520  0.18610  0.98250  Biso   1.000  C 
  H31      1.0000 0.97430  0.75370  0.99290  Biso   1.000  H 
  H32      1.0000 0.02570  0.24630  0.00710  Biso   1.000  H 
  C43      1.0000 0.74130  0.84800  0.02070  Biso   1.000  C 
  C44      1.0000 0.25870  0.15200  0.97930  Biso   1.000  C 
  C45      1.0000 0.65020  0.93480  0.05930  Biso   1.000  C 
  C46      1.0000 0.34980  0.06520  0.94070  Biso   1.000  C 
  H33      1.0000 0.53170  0.95580  0.06260  Biso   1.000  H 
  H34      1.0000 0.46830  0.04420  0.93740  Biso   1.000  H 
  C47      1.0000 0.73620  0.98980  0.09280  Biso   1.000  C 
  C48      1.0000 0.26380  0.01020  0.90720  Biso   1.000  C 
  H35      1.0000 0.67660  0.04850  0.11850  Biso   1.000  H 
  H36      1.0000 0.32340  0.95150  0.88150  Biso   1.000  H 
  C49      1.0000 0.55690  0.73440  0.01200  Biso   1.000  C 
  C50      1.0000 0.44310  0.26560  0.98800  Biso   1.000  C 
  C51      1.0000 0.45790  0.70500  0.96920  Biso   1.000  C 
  C52      1.0000 0.54210  0.29500  0.03080  Biso   1.000  C 
  H37      1.0000 0.45810  0.73220  0.92330  Biso   1.000  H 
  H38      1.0000 0.54190  0.26780  0.07670  Biso   1.000  H 
  C53      1.0000 0.35870  0.63530  0.99450  Biso   1.000  C 
  C54      1.0000 0.64130  0.36470  0.00550  Biso   1.000  C 
  H39      1.0000 0.29370  0.61410  0.96580  Biso   1.000  H 
  H40      1.0000 0.70630  0.38590  0.03420  Biso   1.000  H 
  C55      1.0000 0.35710  0.59740  0.06280  Biso   1.000  C 
  C56      1.0000 0.64290  0.40260  0.93720  Biso   1.000  C 
  C57      1.0000 0.45600  0.62720  0.10540  Biso   1.000  C 
  C58      1.0000 0.54400  0.37280  0.89460  Biso   1.000  C 
  H41      1.0000 0.45370  0.60150  0.15140  Biso   1.000  H 
  H42      1.0000 0.54630  0.39850  0.84860  Biso   1.000  H 
  C59      1.0000 0.55820  0.69490  0.07990  Biso   1.000  C 
  C60      1.0000 0.44180  0.30510  0.92010  Biso   1.000  C 
  H43      1.0000 0.62700  0.71350  0.10820  Biso   1.000  H 
  H44      1.0000 0.37300  0.28650  0.89180  Biso   1.000  H 
  C61      1.0000 0.06120  0.44800  0.09630  Biso   1.000  C 
  C62      1.0000 0.93880  0.55200  0.90370  Biso   1.000  C 
  H45      1.0000 0.96470  0.42940  0.08740  Biso   1.000  H 
  H46      1.0000 0.03530  0.57060  0.91260  Biso   1.000  H 
  C63      1.0000 0.27660  0.44790  0.14380  Biso   1.000  C 
  C64      1.0000 0.72340  0.55210  0.85620  Biso   1.000  C 
  H47      1.0000 0.36420  0.43200  0.17290  Biso   1.000  H 
  H48      1.0000 0.63580  0.56800  0.82710  Biso   1.000  H 
  C65      1.0000 0.92970  0.75010  0.27720  Biso   1.000  C 
  C66      1.0000 0.07030  0.24990  0.72280  Biso   1.000  C 
  H49      1.0000 0.91830  0.71660  0.32420  Biso   1.000  H 
  H50      1.0000 0.08170  0.28340  0.67580  Biso   1.000  H 
  Cl1      1.0000 0.12610  0.77620  0.25920  Biso   1.000  Cl
  Cl2      1.0000 0.87390  0.22380  0.74080  Biso   1.000  Cl
  Cl3      1.0000 0.91630  0.65750  0.21740  Biso   1.000  Cl
  Cl4      1.0000 0.08370  0.34250  0.78260  Biso   1.000  Cl
  Cl5      1.0000 0.76960  0.87490  0.26147  Biso   1.000  Cl
  Cl6      1.0000 0.23040  0.12510  0.73853  Biso   1.000  Cl
