data_image0
_cell_length_a       11.9318
_cell_length_b       21.3866
_cell_length_c       11.6563
_cell_angle_alpha    90
_cell_angle_beta     113.844
_cell_angle_gamma    90

_symmetry_space_group_name_H-M    "P 1"
_symmetry_int_tables_number       1

loop_
  _symmetry_equiv_pos_as_xyz
  'x, y, z'

loop_
  _atom_site_label
  _atom_site_occupancy
  _atom_site_fract_x
  _atom_site_fract_y
  _atom_site_fract_z
  _atom_site_thermal_displace_type
  _atom_site_B_iso_or_equiv
  _atom_site_type_symbol
  Ag1      1.0000 0.58794  0.18618  0.53427  Biso   1.000  Ag
  N1       1.0000 0.55200  0.09385  0.60840  Biso   1.000  N 
  C1       1.0000 0.45450  0.07168  0.61910  Biso   1.000  C 
  H1       1.0000 0.38420  0.09520  0.60310  Biso   1.000  H 
  N2       1.0000 0.46590  0.01133  0.65570  Biso   1.000  N 
  Ag2      1.0000 0.32355  0.94710  0.65085  Biso   1.000  Ag
  Ag3      1.0000 0.18155  0.94771  0.35897  Biso   1.000  Ag
  N3       1.0000 0.36590  0.95502  0.36060  Biso   1.000  N 
  N4       1.0000 0.44800  0.90615  0.39160  Biso   1.000  N 
  C2       1.0000 0.54550  0.92832  0.38090  Biso   1.000  C 
  H2       1.0000 0.61580  0.90480  0.39690  Biso   1.000  H 
  C3       1.0000 0.42090  0.00318  0.33390  Biso   1.000  C 
  C4       1.0000 0.35990  0.06490  0.28990  Biso   1.000  C 
  H3       1.0000 0.30350  0.07250  0.32930  Biso   1.000  H 
  C5       1.0000 0.29320  0.06950  0.15490  Biso   1.000  C 
  H4       1.0000 0.23130  0.03760  0.12660  Biso   1.000  H 
  H5       1.0000 0.34890  0.06400  0.11500  Biso   1.000  H 
  H6       1.0000 0.25520  0.10990  0.13390  Biso   1.000  H 
  H7       1.0000 0.42170  0.09740  0.31740  Biso   1.000  H 
  N5       1.0000 0.53410  0.98867  0.34430  Biso   1.000  N 
  Ag4      1.0000 0.67645  0.05290  0.34915  Biso   1.000  Ag
  N6       1.0000 0.63340  0.15569  0.29150  Biso   1.000  N 
  N7       1.0000 0.59450  0.20072  0.35140  Biso   1.000  N 
  C6       1.0000 0.56750  0.24966  0.27680  Biso   1.000  C 
  H8       1.0000 0.53870  0.28710  0.29540  Biso   1.000  H 
  N8       1.0000 0.58520  0.24064  0.17120  Biso   1.000  N 
  C7       1.0000 0.62570  0.18145  0.18530  Biso   1.000  C 
  C8       1.0000 0.65960  0.14780  0.09120  Biso   1.000  C 
  H9       1.0000 0.73270  0.12320  0.13540  Biso   1.000  H 
  C9       1.0000 0.56170  0.10590  0.00680  Biso   1.000  C 
  H10      1.0000 0.54490  0.07400  0.05550  Biso   1.000  H 
  H11      1.0000 0.58820  0.08690  0.94740  Biso   1.000  H 
  H12      1.0000 0.48870  0.12980  0.96280  Biso   1.000  H 
  H13      1.0000 0.67910  0.17840  0.04070  Biso   1.000  H 
  Ag5      1.0000 0.58794  0.31382  0.03427  Biso   1.000  Ag
  N9       1.0000 0.55200  0.40615  0.10840  Biso   1.000  N 
  C10      1.0000 0.45450  0.42832  0.11910  Biso   1.000  C 
  H14      1.0000 0.38420  0.40480  0.10310  Biso   1.000  H 
  N10      1.0000 0.46590  0.48867  0.15570  Biso   1.000  N 
  C11      1.0000 0.57910  0.50318  0.16610  Biso   1.000  C 
  C12      1.0000 0.64010  0.56490  0.21010  Biso   1.000  C 
  H15      1.0000 0.69650  0.57250  0.17070  Biso   1.000  H 
  H16      1.0000 0.57830  0.59740  0.18260  Biso   1.000  H 
  C13      1.0000 0.70680  0.56950  0.34510  Biso   1.000  C 
  H17      1.0000 0.74480  0.60990  0.36610  Biso   1.000  H 
  H18      1.0000 0.76870  0.53760  0.37340  Biso   1.000  H 
  H19      1.0000 0.65110  0.56400  0.38500  Biso   1.000  H 
  N11      1.0000 0.63410  0.45502  0.13940  Biso   1.000  N 
  Ag6      1.0000 0.81845  0.44771  0.14103  Biso   1.000  Ag
  N12      1.0000 0.85960  0.34373  0.18960  Biso   1.000  N 
  N13      1.0000 0.90120  0.29892  0.13060  Biso   1.000  N 
  C14      1.0000 0.92970  0.25038  0.20570  Biso   1.000  C 
  H20      1.0000 0.96030  0.21330  0.18800  Biso   1.000  H 
  N14      1.0000 0.91030  0.25909  0.31090  Biso   1.000  N 
  C15      1.0000 0.86700  0.31814  0.29610  Biso   1.000  C 
  C16      1.0000 0.83170  0.35123  0.38910  Biso   1.000  C 
  H21      1.0000 0.75940  0.37640  0.34440  Biso   1.000  H 
  H22      1.0000 0.81020  0.32040  0.43790  Biso   1.000  H 
  C17      1.0000 0.93020  0.39240  0.47660  Biso   1.000  C 
  H23      1.0000 0.94870  0.42460  0.42950  Biso   1.000  H 
  H24      1.0000 0.90280  0.41120  0.53550  Biso   1.000  H 
  H25      1.0000 0.00240  0.36800  0.52080  Biso   1.000  H 
  Ag7      1.0000 0.90106  0.18632  0.44496  Biso   1.000  Ag
  N15      1.0000 0.93830  0.09443  0.36960  Biso   1.000  N 
  C18      1.0000 0.03640  0.07170  0.36050  Biso   1.000  C 
  H26      1.0000 0.10290  0.09630  0.36670  Biso   1.000  H 
  N16      1.0000 0.03200  0.00975  0.34140  Biso   1.000  N 
  C19      1.0000 0.92120  0.99482  0.33780  Biso   1.000  C 
  C20      1.0000 0.86770  0.93033  0.31490  Biso   1.000  C 
  C21      1.0000 0.80560  0.91510  0.17930  Biso   1.000  C 
  H27      1.0000 0.77390  0.87330  0.16950  Biso   1.000  H 
  H28      1.0000 0.86330  0.91830  0.14120  Biso   1.000  H 
  H29      1.0000 0.73950  0.94390  0.13940  Biso   1.000  H 
  H30      1.0000 0.93260  0.90020  0.35520  Biso   1.000  H 
  H31      1.0000 0.80920  0.92670  0.35290  Biso   1.000  H 
  N17      1.0000 0.86210  0.04372  0.35400  Biso   1.000  N 
  N18      1.0000 0.90120  0.20108  0.63060  Biso   1.000  N 
  C22      1.0000 0.92970  0.24962  0.70570  Biso   1.000  C 
  H32      1.0000 0.96030  0.28670  0.68800  Biso   1.000  H 
  N19      1.0000 0.91030  0.24091  0.81090  Biso   1.000  N 
  C23      1.0000 0.86700  0.18186  0.79610  Biso   1.000  C 
  C24      1.0000 0.83170  0.14877  0.88910  Biso   1.000  C 
  C25      1.0000 0.93020  0.10760  0.97660  Biso   1.000  C 
  H33      1.0000 0.94870  0.07540  0.92950  Biso   1.000  H 
  H34      1.0000 0.90280  0.08880  0.03550  Biso   1.000  H 
  H35      1.0000 0.00240  0.13200  0.02080  Biso   1.000  H 
  H36      1.0000 0.81020  0.17960  0.93790  Biso   1.000  H 
  H37      1.0000 0.75940  0.12360  0.84440  Biso   1.000  H 
  N20      1.0000 0.85960  0.15627  0.68960  Biso   1.000  N 
  Ag8      1.0000 0.81845  0.05229  0.64103  Biso   1.000  Ag
  N21      1.0000 0.63410  0.04498  0.63940  Biso   1.000  N 
  C26      1.0000 0.57910  0.99682  0.66610  Biso   1.000  C 
  C27      1.0000 0.64010  0.93510  0.71010  Biso   1.000  C 
  H38      1.0000 0.57830  0.90260  0.68260  Biso   1.000  H 
  H39      1.0000 0.69650  0.92750  0.67070  Biso   1.000  H 
  C28      1.0000 0.70680  0.93050  0.84510  Biso   1.000  C 
  H40      1.0000 0.74480  0.89010  0.86610  Biso   1.000  H 
  H41      1.0000 0.65110  0.93600  0.88500  Biso   1.000  H 
  H42      1.0000 0.76870  0.96240  0.87340  Biso   1.000  H 
  N22      1.0000 0.96800  0.99025  0.65860  Biso   1.000  N 
  C29      1.0000 0.96360  0.92830  0.63950  Biso   1.000  C 
  H43      1.0000 0.89710  0.90370  0.63330  Biso   1.000  H 
  N23      1.0000 0.06170  0.90557  0.63040  Biso   1.000  N 
  Ag9      1.0000 0.09894  0.81368  0.55504  Biso   1.000  Ag
  N24      1.0000 0.09880  0.79892  0.36940  Biso   1.000  N 
  C30      1.0000 0.07030  0.75038  0.29430  Biso   1.000  C 
  H44      1.0000 0.03970  0.71330  0.31200  Biso   1.000  H 
  N25      1.0000 0.08970  0.75909  0.18910  Biso   1.000  N 
  C31      1.0000 0.13300  0.81814  0.20390  Biso   1.000  C 
  C32      1.0000 0.16830  0.85123  0.11090  Biso   1.000  C 
  H45      1.0000 0.18980  0.82040  0.06210  Biso   1.000  H 
  C33      1.0000 0.06980  0.89240  0.02340  Biso   1.000  C 
  H46      1.0000 0.05130  0.92460  0.07050  Biso   1.000  H 
  H47      1.0000 0.09720  0.91120  0.96450  Biso   1.000  H 
  H48      1.0000 0.99760  0.86800  0.97920  Biso   1.000  H 
  H49      1.0000 0.24060  0.87640  0.15560  Biso   1.000  H 
  N26      1.0000 0.14040  0.84373  0.31040  Biso   1.000  N 
  Ag10     1.0000 0.09894  0.68632  0.05504  Biso   1.000  Ag
  N27      1.0000 0.06170  0.59443  0.13040  Biso   1.000  N 
  N28      1.0000 0.13790  0.54372  0.14600  Biso   1.000  N 
  C34      1.0000 0.07880  0.49482  0.16220  Biso   1.000  C 
  C35      1.0000 0.13230  0.43033  0.18510  Biso   1.000  C 
  H50      1.0000 0.19080  0.42670  0.14710  Biso   1.000  H 
  H51      1.0000 0.06740  0.40020  0.14480  Biso   1.000  H 
  C36      1.0000 0.19440  0.41510  0.32070  Biso   1.000  C 
  H52      1.0000 0.13670  0.41830  0.35880  Biso   1.000  H 
  H53      1.0000 0.22610  0.37330  0.33050  Biso   1.000  H 
  H54      1.0000 0.26050  0.44390  0.36060  Biso   1.000  H 
  N29      1.0000 0.96800  0.50975  0.15860  Biso   1.000  N 
  C37      1.0000 0.96360  0.57170  0.13950  Biso   1.000  C 
  H55      1.0000 0.89710  0.59630  0.13330  Biso   1.000  H 
  Ag11     1.0000 0.32355  0.55290  0.15085  Biso   1.000  Ag
  N30      1.0000 0.36660  0.65569  0.20850  Biso   1.000  N 
  C38      1.0000 0.37430  0.68145  0.31470  Biso   1.000  C 
  C39      1.0000 0.34040  0.64780  0.40880  Biso   1.000  C 
  H56      1.0000 0.26730  0.62320  0.36460  Biso   1.000  H 
  C40      1.0000 0.43830  0.60590  0.49320  Biso   1.000  C 
  H57      1.0000 0.45510  0.57400  0.44450  Biso   1.000  H 
  H58      1.0000 0.41180  0.58690  0.55260  Biso   1.000  H 
  H59      1.0000 0.51130  0.62980  0.53720  Biso   1.000  H 
  H60      1.0000 0.32090  0.67840  0.45930  Biso   1.000  H 
  C41      1.0000 0.43250  0.74966  0.22320  Biso   1.000  C 
  H61      1.0000 0.46130  0.78710  0.20460  Biso   1.000  H 
  N31      1.0000 0.40550  0.70072  0.14860  Biso   1.000  N 
  Ag12     1.0000 0.41206  0.68618  0.96573  Biso   1.000  Ag
  N32      1.0000 0.44800  0.59385  0.89160  Biso   1.000  N 
  C42      1.0000 0.54550  0.57168  0.88090  Biso   1.000  C 
  H62      1.0000 0.61580  0.59520  0.89690  Biso   1.000  H 
  N33      1.0000 0.53410  0.51133  0.84430  Biso   1.000  N 
  C43      1.0000 0.42090  0.49682  0.83390  Biso   1.000  C 
  C44      1.0000 0.35990  0.43510  0.78990  Biso   1.000  C 
  C45      1.0000 0.29320  0.43050  0.65490  Biso   1.000  C 
  H63      1.0000 0.34890  0.43600  0.61500  Biso   1.000  H 
  H64      1.0000 0.23130  0.46240  0.62660  Biso   1.000  H 
  H65      1.0000 0.25520  0.39010  0.63390  Biso   1.000  H 
  H66      1.0000 0.42170  0.40260  0.81740  Biso   1.000  H 
  H67      1.0000 0.30350  0.42750  0.82930  Biso   1.000  H 
  N34      1.0000 0.36590  0.54498  0.86060  Biso   1.000  N 
  Ag13     1.0000 0.18155  0.55229  0.85897  Biso   1.000  Ag
  N35      1.0000 0.03200  0.49025  0.84140  Biso   1.000  N 
  C46      1.0000 0.03640  0.42830  0.86050  Biso   1.000  C 
  H68      1.0000 0.10290  0.40370  0.86670  Biso   1.000  H 
  N36      1.0000 0.93830  0.40557  0.86960  Biso   1.000  N 
  Ag14     1.0000 0.90106  0.31368  0.94496  Biso   1.000  Ag
  N37      1.0000 0.86210  0.45628  0.85400  Biso   1.000  N 
  C47      1.0000 0.92120  0.50518  0.83780  Biso   1.000  C 
  C48      1.0000 0.86770  0.56967  0.81490  Biso   1.000  C 
  C49      1.0000 0.80560  0.58490  0.67930  Biso   1.000  C 
  H69      1.0000 0.73950  0.55610  0.63940  Biso   1.000  H 
  H70      1.0000 0.77390  0.62670  0.66950  Biso   1.000  H 
  H71      1.0000 0.86330  0.58170  0.64120  Biso   1.000  H 
  H72      1.0000 0.80920  0.57330  0.85290  Biso   1.000  H 
  H73      1.0000 0.93260  0.59980  0.85520  Biso   1.000  H 
  Ag15     1.0000 0.67645  0.44710  0.84915  Biso   1.000  Ag
  N38      1.0000 0.63340  0.34431  0.79150  Biso   1.000  N 
  N39      1.0000 0.59450  0.29928  0.85140  Biso   1.000  N 
  C50      1.0000 0.56750  0.25034  0.77680  Biso   1.000  C 
  H74      1.0000 0.53870  0.21290  0.79540  Biso   1.000  H 
  N40      1.0000 0.58520  0.25936  0.67120  Biso   1.000  N 
  C51      1.0000 0.62570  0.31855  0.68530  Biso   1.000  C 
  C52      1.0000 0.65960  0.35220  0.59120  Biso   1.000  C 
  H75      1.0000 0.67910  0.32160  0.54070  Biso   1.000  H 
  C53      1.0000 0.56170  0.39410  0.50680  Biso   1.000  C 
  H76      1.0000 0.48870  0.37020  0.46280  Biso   1.000  H 
  H77      1.0000 0.54490  0.42600  0.55550  Biso   1.000  H 
  H78      1.0000 0.58820  0.41310  0.44740  Biso   1.000  H 
  H79      1.0000 0.73270  0.37680  0.63540  Biso   1.000  H 
  N41      1.0000 0.14040  0.65627  0.81040  Biso   1.000  N 
  C54      1.0000 0.13300  0.68186  0.70390  Biso   1.000  C 
  C55      1.0000 0.16830  0.64877  0.61090  Biso   1.000  C 
  C56      1.0000 0.06980  0.60760  0.52340  Biso   1.000  C 
  H80      1.0000 0.09720  0.58880  0.46450  Biso   1.000  H 
  H81      1.0000 0.05130  0.57540  0.57050  Biso   1.000  H 
  H82      1.0000 0.99760  0.63200  0.47920  Biso   1.000  H 
  H83      1.0000 0.18980  0.67960  0.56210  Biso   1.000  H 
  H84      1.0000 0.24060  0.62360  0.65560  Biso   1.000  H 
  C57      1.0000 0.07030  0.74962  0.79430  Biso   1.000  C 
  H85      1.0000 0.03970  0.78670  0.81200  Biso   1.000  H 
  N42      1.0000 0.09880  0.70108  0.86940  Biso   1.000  N 
  N43      1.0000 0.08970  0.74091  0.68910  Biso   1.000  N 
  N44      1.0000 0.41480  0.75936  0.82880  Biso   1.000  N 
  C58      1.0000 0.43250  0.75034  0.72320  Biso   1.000  C 
  H86      1.0000 0.46130  0.71290  0.70460  Biso   1.000  H 
  N45      1.0000 0.40550  0.79928  0.64860  Biso   1.000  N 
  Ag16     1.0000 0.41206  0.81382  0.46573  Biso   1.000  Ag
  N46      1.0000 0.41480  0.74064  0.32880  Biso   1.000  N 
  N47      1.0000 0.36660  0.84431  0.70850  Biso   1.000  N 
  C59      1.0000 0.37430  0.81855  0.81470  Biso   1.000  C 
  C60      1.0000 0.34040  0.85220  0.90880  Biso   1.000  C 
  C61      1.0000 0.43830  0.89410  0.99320  Biso   1.000  C 
  H87      1.0000 0.45510  0.92600  0.94450  Biso   1.000  H 
  H88      1.0000 0.41180  0.91310  0.05260  Biso   1.000  H 
  H89      1.0000 0.51130  0.87020  0.03720  Biso   1.000  H 
  H90      1.0000 0.32090  0.82160  0.95930  Biso   1.000  H 
  H91      1.0000 0.26730  0.87680  0.86460  Biso   1.000  H 
  N48      1.0000 0.13790  0.95628  0.64600  Biso   1.000  N 
  C62      1.0000 0.07880  0.00518  0.66220  Biso   1.000  C 
  C63      1.0000 0.13230  0.06967  0.68510  Biso   1.000  C 
  H92      1.0000 0.06740  0.09980  0.64480  Biso   1.000  H 
  H93      1.0000 0.19080  0.07330  0.64710  Biso   1.000  H 
  C64      1.0000 0.19440  0.08490  0.82070  Biso   1.000  C 
  H94      1.0000 0.26050  0.05610  0.86060  Biso   1.000  H 
  H95      1.0000 0.22610  0.12670  0.83050  Biso   1.000  H 
  H96      1.0000 0.13670  0.08170  0.85880  Biso   1.000  H 
