data_image0
_cell_length_a       10.6446
_cell_length_b       13.9646
_cell_length_c       21.3349
_cell_angle_alpha    90
_cell_angle_beta     99.797
_cell_angle_gamma    90

_symmetry_space_group_name_H-M    "P 1"
_symmetry_int_tables_number       1

loop_
  _symmetry_equiv_pos_as_xyz
  'x, y, z'

loop_
  _atom_site_label
  _atom_site_occupancy
  _atom_site_fract_x
  _atom_site_fract_y
  _atom_site_fract_z
  _atom_site_thermal_displace_type
  _atom_site_B_iso_or_equiv
  _atom_site_type_symbol
  C1       1.0000 0.61150  0.89820  0.60247  Biso   1.000  C 
  O1       1.0000 0.66530  0.86610  0.56334  Biso   1.000  O 
  Co1      1.0000 0.59070  0.93847  0.48008  Biso   1.000  Co
  O2       1.0000 0.46970  0.03480  0.40937  Biso   1.000  O 
  C2       1.0000 0.38850  0.10180  0.39753  Biso   1.000  C 
  O3       1.0000 0.33470  0.13390  0.43666  Biso   1.000  O 
  Co2      1.0000 0.40930  0.06153  0.51992  Biso   1.000  Co
  N1       1.0000 0.33010  0.12700  0.58320  Biso   1.000  N 
  N2       1.0000 0.19390  0.14130  0.56462  Biso   1.000  N 
  C3       1.0000 0.16940  0.19070  0.61028  Biso   1.000  C 
  N3       1.0000 0.28750  0.21110  0.65687  Biso   1.000  N 
  C4       1.0000 0.30610  0.26080  0.71693  Biso   1.000  C 
  C5       1.0000 0.38070  0.34440  0.72861  Biso   1.000  C 
  C6       1.0000 0.40520  0.38940  0.78773  Biso   1.000  C 
  H1       1.0000 0.45560  0.44500  0.79440  Biso   1.000  H 
  C7       1.0000 0.35570  0.35140  0.83275  Biso   1.000  C 
  C8       1.0000 0.27810  0.26940  0.81940  Biso   1.000  C 
  C9       1.0000 0.25620  0.22280  0.76100  Biso   1.000  C 
  H2       1.0000 0.20730  0.16660  0.75440  Biso   1.000  H 
  H3       1.0000 0.23870  0.24470  0.85220  Biso   1.000  H 
  C10      1.0000 0.38850  0.39820  0.89753  Biso   1.000  C 
  O4       1.0000 0.33470  0.36610  0.93666  Biso   1.000  O 
  Co3      1.0000 0.40930  0.43847  0.01992  Biso   1.000  Co
  N4       1.0000 0.33010  0.37300  0.08320  Biso   1.000  N 
  N5       1.0000 0.19390  0.35870  0.06462  Biso   1.000  N 
  C11      1.0000 0.16940  0.30930  0.11028  Biso   1.000  C 
  N6       1.0000 0.28750  0.28890  0.15687  Biso   1.000  N 
  C12      1.0000 0.30610  0.23920  0.21693  Biso   1.000  C 
  C13      1.0000 0.38070  0.15560  0.22861  Biso   1.000  C 
  C14      1.0000 0.40520  0.11060  0.28773  Biso   1.000  C 
  H4       1.0000 0.45560  0.05500  0.29440  Biso   1.000  H 
  C15      1.0000 0.35570  0.14860  0.33275  Biso   1.000  C 
  C16      1.0000 0.27810  0.23060  0.31940  Biso   1.000  C 
  C17      1.0000 0.25620  0.27720  0.26100  Biso   1.000  C 
  H5       1.0000 0.20730  0.33340  0.25440  Biso   1.000  H 
  H6       1.0000 0.23870  0.25530  0.35220  Biso   1.000  H 
  H7       1.0000 0.41550  0.12890  0.19490  Biso   1.000  H 
  C18      1.0000 0.38440  0.32990  0.13836  Biso   1.000  C 
  C19      1.0000 0.52890  0.32810  0.17520  Biso   1.000  C 
  H8       1.0000 0.53060  0.34320  0.21970  Biso   1.000  H 
  H9       1.0000 0.57870  0.37510  0.15660  Biso   1.000  H 
  H10      1.0000 0.56480  0.26490  0.17160  Biso   1.000  H 
  C20      1.0000 0.03490  0.27830  0.10785  Biso   1.000  C 
  C21      1.0000 0.01130  0.18920  0.13270  Biso   1.000  C 
  H11      1.0000 0.07730  0.14930  0.15260  Biso   1.000  H 
  C22      1.0000 0.88250  0.16290  0.12600  Biso   1.000  C 
  H12      1.0000 0.86270  0.10230  0.14100  Biso   1.000  H 
  C23      1.0000 0.77660  0.22500  0.09680  Biso   1.000  C 
  H13      1.0000 0.69200  0.20480  0.09550  Biso   1.000  H 
  C24      1.0000 0.80030  0.31110  0.07170  Biso   1.000  C 
  C25      1.0000 0.92960  0.33730  0.07758  Biso   1.000  C 
  H14      1.0000 0.94880  0.39680  0.06080  Biso   1.000  H 
  C26      1.0000 0.68750  0.37750  0.04063  Biso   1.000  C 
  O5       1.0000 0.57560  0.35605  0.04251  Biso   1.000  O 
  O6       1.0000 0.71580  0.45287  0.01354  Biso   1.000  O 
  Co4      1.0000 0.59070  0.56153  0.98008  Biso   1.000  Co
  O7       1.0000 0.66530  0.63390  0.06334  Biso   1.000  O 
  C27      1.0000 0.61150  0.60180  0.10247  Biso   1.000  C 
  O8       1.0000 0.53030  0.53480  0.09063  Biso   1.000  O 
  C28      1.0000 0.64430  0.64860  0.16725  Biso   1.000  C 
  C29      1.0000 0.59480  0.61060  0.21227  Biso   1.000  C 
  H15      1.0000 0.54440  0.55500  0.20560  Biso   1.000  H 
  C30      1.0000 0.61930  0.65560  0.27139  Biso   1.000  C 
  H16      1.0000 0.58450  0.62890  0.30510  Biso   1.000  H 
  C31      1.0000 0.69390  0.73920  0.28307  Biso   1.000  C 
  N7       1.0000 0.71250  0.78890  0.34313  Biso   1.000  N 
  C32      1.0000 0.83060  0.80930  0.38972  Biso   1.000  C 
  N8       1.0000 0.80610  0.85870  0.43538  Biso   1.000  N 
  N9       1.0000 0.66990  0.87300  0.41680  Biso   1.000  N 
  C33      1.0000 0.61560  0.82990  0.36164  Biso   1.000  C 
  C34      1.0000 0.47110  0.82810  0.32480  Biso   1.000  C 
  H17      1.0000 0.46940  0.84320  0.28030  Biso   1.000  H 
  H18      1.0000 0.42130  0.87510  0.34340  Biso   1.000  H 
  H19      1.0000 0.43520  0.76490  0.32840  Biso   1.000  H 
  C35      1.0000 0.96510  0.77830  0.39215  Biso   1.000  C 
  C36      1.0000 0.07040  0.83730  0.42242  Biso   1.000  C 
  H20      1.0000 0.05120  0.89680  0.43920  Biso   1.000  H 
  C37      1.0000 0.19970  0.81110  0.42830  Biso   1.000  C 
  C38      1.0000 0.22340  0.72500  0.40320  Biso   1.000  C 
  C39      1.0000 0.11750  0.66290  0.37400  Biso   1.000  C 
  H21      1.0000 0.13730  0.60230  0.35900  Biso   1.000  H 
  C40      1.0000 0.98870  0.68920  0.36730  Biso   1.000  C 
  H22      1.0000 0.92270  0.64930  0.34740  Biso   1.000  H 
  H23      1.0000 0.30800  0.70480  0.40450  Biso   1.000  H 
  C41      1.0000 0.31250  0.87750  0.45937  Biso   1.000  C 
  O9       1.0000 0.28420  0.95287  0.48646  Biso   1.000  O 
  O10      1.0000 0.42440  0.85605  0.45749  Biso   1.000  O 
  C42      1.0000 0.74380  0.77720  0.23900  Biso   1.000  C 
  H24      1.0000 0.79270  0.83340  0.24560  Biso   1.000  H 
  C43      1.0000 0.72190  0.73060  0.18060  Biso   1.000  C 
  H25      1.0000 0.76130  0.75530  0.14780  Biso   1.000  H 
  N10      1.0000 0.66990  0.62700  0.91680  Biso   1.000  N 
  N11      1.0000 0.80610  0.64130  0.93538  Biso   1.000  N 
  C44      1.0000 0.83060  0.69070  0.88972  Biso   1.000  C 
  N12      1.0000 0.71250  0.71110  0.84313  Biso   1.000  N 
  C45      1.0000 0.69390  0.76080  0.78307  Biso   1.000  C 
  C46      1.0000 0.61930  0.84440  0.77139  Biso   1.000  C 
  H26      1.0000 0.58450  0.87110  0.80510  Biso   1.000  H 
  C47      1.0000 0.59480  0.88940  0.71227  Biso   1.000  C 
  H27      1.0000 0.54440  0.94500  0.70560  Biso   1.000  H 
  C48      1.0000 0.64430  0.85140  0.66725  Biso   1.000  C 
  C49      1.0000 0.72190  0.76940  0.68060  Biso   1.000  C 
  H28      1.0000 0.76130  0.74470  0.64780  Biso   1.000  H 
  C50      1.0000 0.74380  0.72280  0.73900  Biso   1.000  C 
  H29      1.0000 0.79270  0.66660  0.74560  Biso   1.000  H 
  C51      1.0000 0.61560  0.67010  0.86164  Biso   1.000  C 
  C52      1.0000 0.47110  0.67190  0.82480  Biso   1.000  C 
  H30      1.0000 0.42130  0.62490  0.84340  Biso   1.000  H 
  H31      1.0000 0.43520  0.73510  0.82840  Biso   1.000  H 
  H32      1.0000 0.46940  0.65680  0.78030  Biso   1.000  H 
  C53      1.0000 0.96510  0.72170  0.89215  Biso   1.000  C 
  C54      1.0000 0.07040  0.66270  0.92242  Biso   1.000  C 
  H33      1.0000 0.05120  0.60320  0.93920  Biso   1.000  H 
  C55      1.0000 0.19970  0.68890  0.92830  Biso   1.000  C 
  C56      1.0000 0.22340  0.77500  0.90320  Biso   1.000  C 
  C57      1.0000 0.11750  0.83710  0.87400  Biso   1.000  C 
  H34      1.0000 0.13730  0.89770  0.85900  Biso   1.000  H 
  C58      1.0000 0.98870  0.81080  0.86730  Biso   1.000  C 
  H35      1.0000 0.92270  0.85070  0.84740  Biso   1.000  H 
  H36      1.0000 0.30800  0.79520  0.90450  Biso   1.000  H 
  C59      1.0000 0.31250  0.62250  0.95937  Biso   1.000  C 
  O11      1.0000 0.28420  0.54713  0.98646  Biso   1.000  O 
  O12      1.0000 0.42440  0.64395  0.95749  Biso   1.000  O 
  O13      1.0000 0.46970  0.46520  0.90937  Biso   1.000  O 
  H37      1.0000 0.41550  0.37110  0.69490  Biso   1.000  H 
  C60      1.0000 0.38440  0.17010  0.63836  Biso   1.000  C 
  C61      1.0000 0.52890  0.17190  0.67520  Biso   1.000  C 
  H38      1.0000 0.53060  0.15680  0.71970  Biso   1.000  H 
  H39      1.0000 0.56480  0.23510  0.67160  Biso   1.000  H 
  H40      1.0000 0.57870  0.12490  0.65660  Biso   1.000  H 
  C62      1.0000 0.03490  0.22170  0.60785  Biso   1.000  C 
  C63      1.0000 0.01130  0.31080  0.63270  Biso   1.000  C 
  H41      1.0000 0.07730  0.35070  0.65260  Biso   1.000  H 
  C64      1.0000 0.88250  0.33710  0.62600  Biso   1.000  C 
  H42      1.0000 0.86270  0.39770  0.64100  Biso   1.000  H 
  C65      1.0000 0.77660  0.27500  0.59680  Biso   1.000  C 
  H43      1.0000 0.69200  0.29520  0.59550  Biso   1.000  H 
  C66      1.0000 0.80030  0.18890  0.57170  Biso   1.000  C 
  C67      1.0000 0.92960  0.16270  0.57758  Biso   1.000  C 
  H44      1.0000 0.94880  0.10320  0.56080  Biso   1.000  H 
  C68      1.0000 0.68750  0.12250  0.54063  Biso   1.000  C 
  O14      1.0000 0.57560  0.14395  0.54251  Biso   1.000  O 
  O15      1.0000 0.71580  0.04713  0.51354  Biso   1.000  O 
  O16      1.0000 0.53030  0.96520  0.59063  Biso   1.000  O 
