data_image0
_cell_length_a       17.6574
_cell_length_b       17.6574
_cell_length_c       18.6518
_cell_angle_alpha    90
_cell_angle_beta     90
_cell_angle_gamma    90

_symmetry_space_group_name_H-M    "P 1"
_symmetry_int_tables_number       1

loop_
  _symmetry_equiv_pos_as_xyz
  'x, y, z'

loop_
  _atom_site_label
  _atom_site_occupancy
  _atom_site_fract_x
  _atom_site_fract_y
  _atom_site_fract_z
  _atom_site_thermal_displace_type
  _atom_site_B_iso_or_equiv
  _atom_site_type_symbol
  Ni1      1.0000 0.38221  0.58006  0.07370  Biso   1.000  Ni
  O1       1.0000 0.34884  0.49090  0.01523  Biso   1.000  O 
  C1       1.0000 0.29380  0.44720  0.02580  Biso   1.000  C 
  O2       1.0000 0.25650  0.43941  0.08234  Biso   1.000  O 
  Ni2      1.0000 0.27608  0.46707  0.18655  Biso   1.000  Ni
  N1       1.0000 0.16330  0.43070  0.20607  Biso   1.000  N 
  C2       1.0000 0.12810  0.37310  0.17330  Biso   1.000  C 
  H1       1.0000 0.15550  0.34340  0.14130  Biso   1.000  H 
  C3       1.0000 0.05280  0.35610  0.18490  Biso   1.000  C 
  H2       1.0000 0.03090  0.31520  0.16130  Biso   1.000  H 
  C4       1.0000 0.01000  0.39910  0.23100  Biso   1.000  C 
  C5       1.0000 0.04670  0.46080  0.26350  Biso   1.000  C 
  C6       1.0000 0.12220  0.47430  0.24950  Biso   1.000  C 
  H3       1.0000 0.14550  0.51550  0.27130  Biso   1.000  H 
  H4       1.0000 0.02010  0.49250  0.29440  Biso   1.000  H 
  C7       1.0000 0.92710  0.38390  0.24760  Biso   1.000  C 
  C8       1.0000 0.87430  0.39740  0.18520  Biso   1.000  C 
  H5       1.0000 0.88710  0.36270  0.14670  Biso   1.000  H 
  H6       1.0000 0.88150  0.44850  0.16760  Biso   1.000  H 
  C9       1.0000 0.79160  0.38660  0.20480  Biso   1.000  C 
  H7       1.0000 0.77660  0.42650  0.23760  Biso   1.000  H 
  H8       1.0000 0.78590  0.33870  0.22960  Biso   1.000  H 
  C10      1.0000 0.74030  0.38770  0.14130  Biso   1.000  C 
  C11      1.0000 0.73330  0.44820  0.09750  Biso   1.000  C 
  C12      1.0000 0.68750  0.44640  0.03780  Biso   1.000  C 
  H9       1.0000 0.68450  0.48960  0.00940  Biso   1.000  H 
  N2       1.0000 0.64760  0.38610  0.01895  Biso   1.000  N 
  C13      1.0000 0.65390  0.32530  0.06110  Biso   1.000  C 
  C14      1.0000 0.69910  0.32460  0.12180  Biso   1.000  C 
  H10      1.0000 0.70180  0.28110  0.14980  Biso   1.000  H 
  H11      1.0000 0.62700  0.28180  0.04920  Biso   1.000  H 
  Ni3      1.0000 0.58006  0.38221  0.92630  Biso   1.000  Ni
  O3       1.0000 0.49090  0.34884  0.98477  Biso   1.000  O 
  C15      1.0000 0.44720  0.29380  0.97420  Biso   1.000  C 
  O4       1.0000 0.43941  0.25650  0.91766  Biso   1.000  O 
  Ni4      1.0000 0.46707  0.27608  0.81345  Biso   1.000  Ni
  O5       1.0000 0.47035  0.28948  0.70310  Biso   1.000  O 
  C16      1.0000 0.40620  0.29980  0.67190  Biso   1.000  C 
  C17      1.0000 0.33810  0.31010  0.72010  Biso   1.000  C 
  H12      1.0000 0.31480  0.26140  0.72980  Biso   1.000  H 
  H13      1.0000 0.30090  0.34220  0.69680  Biso   1.000  H 
  N3       1.0000 0.36341  0.34531  0.78793  Biso   1.000  N 
  C18      1.0000 0.30893  0.34850  0.84492  Biso   1.000  C 
  C19      1.0000 0.32220  0.39510  0.90400  Biso   1.000  C 
  C20      1.0000 0.27310  0.39720  0.96218  Biso   1.000  C 
  C21      1.0000 0.20660  0.35390  0.96110  Biso   1.000  C 
  H14      1.0000 0.17310  0.35520  0.99950  Biso   1.000  H 
  C22      1.0000 0.19170  0.30890  0.90150  Biso   1.000  C 
  C23      1.0000 0.12120  0.26260  0.89520  Biso   1.000  C 
  O6       1.0000 0.07517  0.26220  0.94618  Biso   1.000  O 
  Ni5      1.0000 0.96707  0.22392  0.93655  Biso   1.000  Ni
  N4       1.0000 0.86341  0.15469  0.96207  Biso   1.000  N 
  C24      1.0000 0.83810  0.18990  0.02990  Biso   1.000  C 
  H15      1.0000 0.80090  0.15780  0.05320  Biso   1.000  H 
  H16      1.0000 0.81480  0.23860  0.02020  Biso   1.000  H 
  C25      1.0000 0.90620  0.20020  0.07810  Biso   1.000  C 
  O7       1.0000 0.89820  0.19850  0.14329  Biso   1.000  O 
  O8       1.0000 0.97035  0.21052  0.04690  Biso   1.000  O 
  C26      1.0000 0.80893  0.15150  0.90508  Biso   1.000  C 
  C27      1.0000 0.82220  0.10490  0.84600  Biso   1.000  C 
  C28      1.0000 0.77310  0.10280  0.78782  Biso   1.000  C 
  C29      1.0000 0.79380  0.05280  0.72420  Biso   1.000  C 
  O9       1.0000 0.75650  0.06059  0.66766  Biso   1.000  O 
  Ni6      1.0000 0.77608  0.03293  0.56345  Biso   1.000  Ni
  O10      1.0000 0.78948  0.02965  0.45310  Biso   1.000  O 
  C30      1.0000 0.79980  0.09380  0.42190  Biso   1.000  C 
  C31      1.0000 0.81010  0.16190  0.47010  Biso   1.000  C 
  H17      1.0000 0.76140  0.18520  0.47980  Biso   1.000  H 
  H18      1.0000 0.84220  0.19910  0.44680  Biso   1.000  H 
  N5       1.0000 0.84531  0.13659  0.53793  Biso   1.000  N 
  C32      1.0000 0.84850  0.19107  0.59492  Biso   1.000  C 
  C33      1.0000 0.89510  0.17780  0.65400  Biso   1.000  C 
  H19      1.0000 0.92570  0.13490  0.65450  Biso   1.000  H 
  C34      1.0000 0.89720  0.22690  0.71218  Biso   1.000  C 
  C35      1.0000 0.94720  0.20620  0.77580  Biso   1.000  C 
  O11      1.0000 0.93941  0.24350  0.83234  Biso   1.000  O 
  O12      1.0000 0.99090  0.15116  0.76523  Biso   1.000  O 
  Ni7      1.0000 0.08006  0.11779  0.82370  Biso   1.000  Ni
  N6       1.0000 0.14760  0.11390  0.73105  Biso   1.000  N 
  C36      1.0000 0.18750  0.05360  0.71220  Biso   1.000  C 
  H20      1.0000 0.18450  0.01040  0.74060  Biso   1.000  H 
  C37      1.0000 0.23330  0.05180  0.65250  Biso   1.000  C 
  H21      1.0000 0.26020  0.00790  0.64220  Biso   1.000  H 
  C38      1.0000 0.24030  0.11230  0.60870  Biso   1.000  C 
  C39      1.0000 0.29160  0.11340  0.54520  Biso   1.000  C 
  H22      1.0000 0.27660  0.07350  0.51240  Biso   1.000  H 
  H23      1.0000 0.28590  0.16130  0.52040  Biso   1.000  H 
  C40      1.0000 0.37430  0.10260  0.56480  Biso   1.000  C 
  H24      1.0000 0.38710  0.13730  0.60330  Biso   1.000  H 
  H25      1.0000 0.38150  0.05150  0.58240  Biso   1.000  H 
  C41      1.0000 0.42710  0.11610  0.50240  Biso   1.000  C 
  H26      1.0000 0.41180  0.08390  0.46290  Biso   1.000  H 
  H27      1.0000 0.42190  0.16830  0.48690  Biso   1.000  H 
  C42      1.0000 0.51000  0.10090  0.51900  Biso   1.000  C 
  C43      1.0000 0.54670  0.03920  0.48650  Biso   1.000  C 
  H28      1.0000 0.52010  0.00750  0.45560  Biso   1.000  H 
  C44      1.0000 0.62220  0.02570  0.50050  Biso   1.000  C 
  N7       1.0000 0.66330  0.06930  0.54393  Biso   1.000  N 
  C45      1.0000 0.62810  0.12690  0.57670  Biso   1.000  C 
  H29      1.0000 0.65550  0.15660  0.60870  Biso   1.000  H 
  C46      1.0000 0.55280  0.14390  0.56510  Biso   1.000  C 
  H30      1.0000 0.53090  0.18480  0.58870  Biso   1.000  H 
  H31      1.0000 0.64550  0.98450  0.47870  Biso   1.000  H 
  C47      1.0000 0.19910  0.17540  0.62820  Biso   1.000  C 
  H32      1.0000 0.20180  0.21890  0.60020  Biso   1.000  H 
  C48      1.0000 0.15390  0.17470  0.68890  Biso   1.000  C 
  H33      1.0000 0.12700  0.21820  0.70080  Biso   1.000  H 
  O13      1.0000 0.00542  0.11611  0.91370  Biso   1.000  O 
  C49      1.0000 0.96430  0.05980  0.93320  Biso   1.000  C 
  O14      1.0000 0.97657  0.99343  0.91875  Biso   1.000  O 
  C50      1.0000 0.89480  0.07850  0.97820  Biso   1.000  C 
  H34      1.0000 0.85600  0.04070  0.96950  Biso   1.000  H 
  H35      1.0000 0.90820  0.07620  0.02850  Biso   1.000  H 
  O15      1.0000 0.06343  0.00201  0.81120  Biso   1.000  O 
  H36      1.0000 0.00886  0.99182  0.80267  Biso   1.000  H 
  H37      1.0000 0.09343  0.98365  0.76966  Biso   1.000  H 
  O16      1.0000 0.17260  0.09630  0.89240  Biso   1.000  O 
  H38      1.0000 0.16460  0.04741  0.91759  Biso   1.000  H 
  H39      1.0000 0.21993  0.09365  0.86376  Biso   1.000  H 
  O17      1.0000 0.11231  0.22737  0.83754  Biso   1.000  O 
  C51      1.0000 0.85390  0.29340  0.71110  Biso   1.000  C 
  H40      1.0000 0.85520  0.32690  0.74950  Biso   1.000  H 
  C52      1.0000 0.80890  0.30830  0.65150  Biso   1.000  C 
  C53      1.0000 0.76260  0.37880  0.64520  Biso   1.000  C 
  O18      1.0000 0.76220  0.42483  0.69618  Biso   1.000  O 
  Ni8      1.0000 0.72392  0.53293  0.68655  Biso   1.000  Ni
  O19      1.0000 0.61611  0.49458  0.66370  Biso   1.000  O 
  C54      1.0000 0.55980  0.53570  0.68320  Biso   1.000  C 
  O20      1.0000 0.49343  0.52343  0.66875  Biso   1.000  O 
  C55      1.0000 0.57850  0.60520  0.72820  Biso   1.000  C 
  H41      1.0000 0.54070  0.64400  0.71950  Biso   1.000  H 
  N8       1.0000 0.65469  0.63659  0.71207  Biso   1.000  N 
  C56      1.0000 0.68990  0.66190  0.77990  Biso   1.000  C 
  H42      1.0000 0.65780  0.69910  0.80320  Biso   1.000  H 
  H43      1.0000 0.73860  0.68520  0.77020  Biso   1.000  H 
  C57      1.0000 0.70020  0.59380  0.82810  Biso   1.000  C 
  O21      1.0000 0.69850  0.60180  0.89329  Biso   1.000  O 
  O22      1.0000 0.71052  0.52965  0.79690  Biso   1.000  O 
  C58      1.0000 0.65150  0.69107  0.65508  Biso   1.000  C 
  C59      1.0000 0.60490  0.67780  0.59600  Biso   1.000  C 
  H44      1.0000 0.57430  0.63490  0.59550  Biso   1.000  H 
  C60      1.0000 0.60280  0.72690  0.53782  Biso   1.000  C 
  C61      1.0000 0.55280  0.70620  0.47420  Biso   1.000  C 
  O23      1.0000 0.56059  0.74350  0.41766  Biso   1.000  O 
  Ni9      1.0000 0.53293  0.72392  0.31345  Biso   1.000  Ni
  O24      1.0000 0.49458  0.61611  0.33630  Biso   1.000  O 
  C62      1.0000 0.53570  0.55980  0.31680  Biso   1.000  C 
  O25      1.0000 0.52343  0.49343  0.33125  Biso   1.000  O 
  C63      1.0000 0.60520  0.57850  0.27180  Biso   1.000  C 
  H45      1.0000 0.59180  0.57620  0.22150  Biso   1.000  H 
  H46      1.0000 0.64400  0.54070  0.28050  Biso   1.000  H 
  N9       1.0000 0.63659  0.65469  0.28793  Biso   1.000  N 
  C64      1.0000 0.66190  0.68990  0.22010  Biso   1.000  C 
  H47      1.0000 0.69910  0.65780  0.19680  Biso   1.000  H 
  H48      1.0000 0.68520  0.73860  0.22980  Biso   1.000  H 
  C65      1.0000 0.59380  0.70020  0.17190  Biso   1.000  C 
  O26      1.0000 0.60180  0.69850  0.10671  Biso   1.000  O 
  O27      1.0000 0.52965  0.71052  0.20310  Biso   1.000  O 
  C66      1.0000 0.69107  0.65150  0.34492  Biso   1.000  C 
  C67      1.0000 0.67780  0.60490  0.40400  Biso   1.000  C 
  H49      1.0000 0.63490  0.57430  0.40450  Biso   1.000  H 
  C68      1.0000 0.72690  0.60280  0.46218  Biso   1.000  C 
  C69      1.0000 0.70620  0.55280  0.52580  Biso   1.000  C 
  O28      1.0000 0.74350  0.56059  0.58234  Biso   1.000  O 
  O29      1.0000 0.65116  0.50910  0.51523  Biso   1.000  O 
  Ni10     1.0000 0.61779  0.41994  0.57370  Biso   1.000  Ni
  N10      1.0000 0.61390  0.35240  0.48105  Biso   1.000  N 
  C70      1.0000 0.55360  0.31250  0.46220  Biso   1.000  C 
  H50      1.0000 0.51040  0.31550  0.49060  Biso   1.000  H 
  C71      1.0000 0.55180  0.26670  0.40250  Biso   1.000  C 
  H51      1.0000 0.50790  0.23980  0.39220  Biso   1.000  H 
  C72      1.0000 0.61230  0.25970  0.35870  Biso   1.000  C 
  C73      1.0000 0.61340  0.20840  0.29520  Biso   1.000  C 
  H52      1.0000 0.66130  0.21410  0.27040  Biso   1.000  H 
  C74      1.0000 0.60260  0.12570  0.31480  Biso   1.000  C 
  H53      1.0000 0.55150  0.11850  0.33240  Biso   1.000  H 
  H54      1.0000 0.63730  0.11290  0.35330  Biso   1.000  H 
  C75      1.0000 0.61610  0.07290  0.25240  Biso   1.000  C 
  H55      1.0000 0.66830  0.07810  0.23690  Biso   1.000  H 
  H56      1.0000 0.58390  0.08820  0.21290  Biso   1.000  H 
  C76      1.0000 0.60090  0.99000  0.26900  Biso   1.000  C 
  C77      1.0000 0.53920  0.95330  0.23650  Biso   1.000  C 
  H57      1.0000 0.50750  0.97990  0.20560  Biso   1.000  H 
  C78      1.0000 0.52570  0.87780  0.25050  Biso   1.000  C 
  H58      1.0000 0.48450  0.85450  0.22870  Biso   1.000  H 
  N11      1.0000 0.56930  0.83670  0.29393  Biso   1.000  N 
  C79      1.0000 0.62690  0.87190  0.32670  Biso   1.000  C 
  H59      1.0000 0.65660  0.84450  0.35870  Biso   1.000  H 
  C80      1.0000 0.64390  0.94720  0.31510  Biso   1.000  C 
  H60      1.0000 0.68480  0.96910  0.33870  Biso   1.000  H 
  H61      1.0000 0.57350  0.22340  0.26240  Biso   1.000  H 
  C81      1.0000 0.67540  0.30090  0.37820  Biso   1.000  C 
  H62      1.0000 0.71890  0.29820  0.35020  Biso   1.000  H 
  C82      1.0000 0.67470  0.34610  0.43890  Biso   1.000  C 
  H63      1.0000 0.71820  0.37300  0.45080  Biso   1.000  H 
  O30      1.0000 0.50201  0.43657  0.56120  Biso   1.000  O 
  H64      1.0000 0.48365  0.40657  0.51966  Biso   1.000  H 
  H65      1.0000 0.49182  0.49114  0.55267  Biso   1.000  H 
  O31      1.0000 0.59630  0.32740  0.64240  Biso   1.000  O 
  H66      1.0000 0.59365  0.28007  0.61375  Biso   1.000  H 
  H67      1.0000 0.54741  0.33540  0.66759  Biso   1.000  H 
  O32      1.0000 0.72737  0.38769  0.58754  Biso   1.000  O 
  C83      1.0000 0.79340  0.64610  0.46110  Biso   1.000  C 
  H68      1.0000 0.82690  0.64480  0.49950  Biso   1.000  H 
  C84      1.0000 0.80830  0.69110  0.40150  Biso   1.000  C 
  C85      1.0000 0.87880  0.73740  0.39520  Biso   1.000  C 
  O33      1.0000 0.92483  0.73780  0.44618  Biso   1.000  O 
  Ni11     1.0000 0.03293  0.77608  0.43655  Biso   1.000  Ni
  N12      1.0000 0.06930  0.66330  0.45607  Biso   1.000  N 
  C86      1.0000 0.12690  0.62810  0.42330  Biso   1.000  C 
  H69      1.0000 0.15660  0.65550  0.39130  Biso   1.000  H 
  C87      1.0000 0.14390  0.55280  0.43490  Biso   1.000  C 
  H70      1.0000 0.18480  0.53090  0.41130  Biso   1.000  H 
  C88      1.0000 0.10090  0.51000  0.48100  Biso   1.000  C 
  C89      1.0000 0.03920  0.54670  0.51350  Biso   1.000  C 
  C90      1.0000 0.02570  0.62220  0.49950  Biso   1.000  C 
  H71      1.0000 0.98450  0.64550  0.52130  Biso   1.000  H 
  H72      1.0000 0.00750  0.52010  0.54440  Biso   1.000  H 
  C91      1.0000 0.11610  0.42710  0.49760  Biso   1.000  C 
  C92      1.0000 0.10260  0.37430  0.43520  Biso   1.000  C 
  H73      1.0000 0.05150  0.38150  0.41760  Biso   1.000  H 
  H74      1.0000 0.13730  0.38710  0.39670  Biso   1.000  H 
  C93      1.0000 0.11340  0.29160  0.45480  Biso   1.000  C 
  H75      1.0000 0.07350  0.27660  0.48760  Biso   1.000  H 
  H76      1.0000 0.16130  0.28590  0.47960  Biso   1.000  H 
  C94      1.0000 0.11230  0.24030  0.39130  Biso   1.000  C 
  C95      1.0000 0.05180  0.23330  0.34750  Biso   1.000  C 
  H77      1.0000 0.00790  0.26020  0.35780  Biso   1.000  H 
  C96      1.0000 0.05360  0.18750  0.28780  Biso   1.000  C 
  H78      1.0000 0.01040  0.18450  0.25940  Biso   1.000  H 
  N13      1.0000 0.11390  0.14760  0.26895  Biso   1.000  N 
  C97      1.0000 0.17470  0.15390  0.31110  Biso   1.000  C 
  C98      1.0000 0.17540  0.19910  0.37180  Biso   1.000  C 
  H79      1.0000 0.21890  0.20180  0.39980  Biso   1.000  H 
  H80      1.0000 0.21820  0.12700  0.29920  Biso   1.000  H 
  Ni12     1.0000 0.11779  0.08006  0.17630  Biso   1.000  Ni
  O34      1.0000 0.00201  0.06343  0.18880  Biso   1.000  O 
  H81      1.0000 0.99182  0.00886  0.19733  Biso   1.000  H 
  H82      1.0000 0.98365  0.09343  0.23034  Biso   1.000  H 
  O35      1.0000 0.11611  0.00542  0.08630  Biso   1.000  O 
  Ni13     1.0000 0.22392  0.96707  0.06345  Biso   1.000  Ni
  N14      1.0000 0.15469  0.86341  0.03793  Biso   1.000  N 
  C99      1.0000 0.18990  0.83810  0.97010  Biso   1.000  C 
  H83      1.0000 0.15780  0.80090  0.94680  Biso   1.000  H 
  H84      1.0000 0.23860  0.81480  0.97980  Biso   1.000  H 
  C100     1.0000 0.20020  0.90620  0.92190  Biso   1.000  C 
  O36      1.0000 0.19850  0.89820  0.85671  Biso   1.000  O 
  O37      1.0000 0.21052  0.97035  0.95310  Biso   1.000  O 
  C101     1.0000 0.15150  0.80893  0.09492  Biso   1.000  C 
  C102     1.0000 0.10490  0.82220  0.15400  Biso   1.000  C 
  C103     1.0000 0.10280  0.77310  0.21218  Biso   1.000  C 
  C104     1.0000 0.05280  0.79380  0.27580  Biso   1.000  C 
  O38      1.0000 0.06059  0.75650  0.33234  Biso   1.000  O 
  O39      1.0000 0.00910  0.84884  0.26523  Biso   1.000  O 
  Ni14     1.0000 0.91994  0.88221  0.32370  Biso   1.000  Ni
  N15      1.0000 0.85240  0.88610  0.23105  Biso   1.000  N 
  C105     1.0000 0.84610  0.82530  0.18890  Biso   1.000  C 
  H85      1.0000 0.87300  0.78180  0.20080  Biso   1.000  H 
  C106     1.0000 0.80090  0.82460  0.12820  Biso   1.000  C 
  H86      1.0000 0.79820  0.78110  0.10020  Biso   1.000  H 
  C107     1.0000 0.75970  0.88770  0.10870  Biso   1.000  C 
  C108     1.0000 0.70840  0.88660  0.04520  Biso   1.000  C 
  H87      1.0000 0.71410  0.83870  0.02040  Biso   1.000  H 
  C109     1.0000 0.62570  0.89740  0.06480  Biso   1.000  C 
  H88      1.0000 0.61290  0.86270  0.10330  Biso   1.000  H 
  H89      1.0000 0.61850  0.94850  0.08240  Biso   1.000  H 
  C110     1.0000 0.57290  0.88390  0.00240  Biso   1.000  C 
  C111     1.0000 0.49000  0.89910  0.01900  Biso   1.000  C 
  C112     1.0000 0.44720  0.85610  0.06510  Biso   1.000  C 
  H90      1.0000 0.46910  0.81520  0.08870  Biso   1.000  H 
  C113     1.0000 0.37190  0.87310  0.07670  Biso   1.000  C 
  H91      1.0000 0.34450  0.84340  0.10870  Biso   1.000  H 
  N16      1.0000 0.33670  0.93070  0.04393  Biso   1.000  N 
  C114     1.0000 0.37780  0.97430  0.00050  Biso   1.000  C 
  H92      1.0000 0.35450  0.01550  0.97870  Biso   1.000  H 
  C115     1.0000 0.45330  0.96080  0.98650  Biso   1.000  C 
  H93      1.0000 0.47990  0.99250  0.95560  Biso   1.000  H 
  H94      1.0000 0.57810  0.83170  0.98690  Biso   1.000  H 
  H95      1.0000 0.58820  0.91610  0.96290  Biso   1.000  H 
  H96      1.0000 0.72340  0.92650  0.01240  Biso   1.000  H 
  C116     1.0000 0.76670  0.94820  0.15250  Biso   1.000  C 
  C117     1.0000 0.81250  0.94640  0.21220  Biso   1.000  C 
  H97      1.0000 0.81550  0.98960  0.24060  Biso   1.000  H 
  H98      1.0000 0.73980  0.99210  0.14220  Biso   1.000  H 
  O40      1.0000 0.88769  0.77263  0.33754  Biso   1.000  O 
  O41      1.0000 0.93657  0.99799  0.31120  Biso   1.000  O 
  H99      1.0000 0.90657  0.01635  0.26966  Biso   1.000  H 
  H100     1.0000 0.99114  0.00818  0.30267  Biso   1.000  H 
  O42      1.0000 0.99458  0.88389  0.41370  Biso   1.000  O 
  C118     1.0000 0.03570  0.94020  0.43320  Biso   1.000  C 
  O43      1.0000 0.02343  0.00657  0.41875  Biso   1.000  O 
  C119     1.0000 0.10520  0.92150  0.47820  Biso   1.000  C 
  N17      1.0000 0.13659  0.84531  0.46207  Biso   1.000  N 
  C120     1.0000 0.16190  0.81010  0.52990  Biso   1.000  C 
  H101     1.0000 0.18520  0.76140  0.52020  Biso   1.000  H 
  H102     1.0000 0.19910  0.84220  0.55320  Biso   1.000  H 
  C121     1.0000 0.09380  0.79980  0.57810  Biso   1.000  C 
  O44      1.0000 0.10180  0.80150  0.64329  Biso   1.000  O 
  O45      1.0000 0.02965  0.78948  0.54690  Biso   1.000  O 
  C122     1.0000 0.19107  0.84850  0.40508  Biso   1.000  C 
  C123     1.0000 0.17780  0.89510  0.34600  Biso   1.000  C 
  H103     1.0000 0.13490  0.92570  0.34550  Biso   1.000  H 
  C124     1.0000 0.22690  0.89720  0.28782  Biso   1.000  C 
  C125     1.0000 0.20620  0.94720  0.22420  Biso   1.000  C 
  O46      1.0000 0.24350  0.93941  0.16766  Biso   1.000  O 
  O47      1.0000 0.15116  0.99090  0.23477  Biso   1.000  O 
  C126     1.0000 0.29340  0.85390  0.28890  Biso   1.000  C 
  H104     1.0000 0.32690  0.85520  0.25050  Biso   1.000  H 
  C127     1.0000 0.30830  0.80890  0.34850  Biso   1.000  C 
  C128     1.0000 0.37880  0.76260  0.35480  Biso   1.000  C 
  O48      1.0000 0.42483  0.76220  0.30382  Biso   1.000  O 
  O49      1.0000 0.38769  0.72737  0.41246  Biso   1.000  O 
  Ni15     1.0000 0.41994  0.61779  0.42630  Biso   1.000  Ni
  O50      1.0000 0.32740  0.59630  0.35760  Biso   1.000  O 
  H105     1.0000 0.33540  0.54741  0.33241  Biso   1.000  H 
  H106     1.0000 0.28007  0.59365  0.38624  Biso   1.000  H 
  O51      1.0000 0.43657  0.50201  0.43880  Biso   1.000  O 
  H107     1.0000 0.40657  0.48365  0.48034  Biso   1.000  H 
  H108     1.0000 0.49114  0.49182  0.44733  Biso   1.000  H 
  O52      1.0000 0.50910  0.65116  0.48477  Biso   1.000  O 
  N18      1.0000 0.35240  0.61390  0.51895  Biso   1.000  N 
  C129     1.0000 0.31250  0.55360  0.53780  Biso   1.000  C 
  H109     1.0000 0.31550  0.51040  0.50940  Biso   1.000  H 
  C130     1.0000 0.26670  0.55180  0.59750  Biso   1.000  C 
  H110     1.0000 0.23980  0.50790  0.60780  Biso   1.000  H 
  C131     1.0000 0.25970  0.61230  0.64130  Biso   1.000  C 
  C132     1.0000 0.20840  0.61340  0.70480  Biso   1.000  C 
  H111     1.0000 0.21410  0.66130  0.72960  Biso   1.000  H 
  C133     1.0000 0.12570  0.60260  0.68520  Biso   1.000  C 
  H112     1.0000 0.11850  0.55150  0.66760  Biso   1.000  H 
  H113     1.0000 0.11290  0.63730  0.64670  Biso   1.000  H 
  C134     1.0000 0.07290  0.61610  0.74760  Biso   1.000  C 
  H114     1.0000 0.08820  0.58390  0.78710  Biso   1.000  H 
  H115     1.0000 0.07810  0.66830  0.76310  Biso   1.000  H 
  C135     1.0000 0.99000  0.60090  0.73100  Biso   1.000  C 
  C136     1.0000 0.94720  0.64390  0.68490  Biso   1.000  C 
  C137     1.0000 0.87190  0.62690  0.67330  Biso   1.000  C 
  N19      1.0000 0.83670  0.56930  0.70607  Biso   1.000  N 
  C138     1.0000 0.87780  0.52570  0.74950  Biso   1.000  C 
  H116     1.0000 0.85450  0.48450  0.77130  Biso   1.000  H 
  C139     1.0000 0.95330  0.53920  0.76350  Biso   1.000  C 
  H117     1.0000 0.97990  0.50750  0.79440  Biso   1.000  H 
  H118     1.0000 0.84450  0.65660  0.64130  Biso   1.000  H 
  H119     1.0000 0.96910  0.68480  0.66130  Biso   1.000  H 
  H120     1.0000 0.22340  0.57350  0.73760  Biso   1.000  H 
  C140     1.0000 0.30090  0.67540  0.62180  Biso   1.000  C 
  H121     1.0000 0.29820  0.71890  0.64980  Biso   1.000  H 
  C141     1.0000 0.34610  0.67470  0.56110  Biso   1.000  C 
  H122     1.0000 0.37300  0.71820  0.54920  Biso   1.000  H 
  C142     1.0000 0.25720  0.80620  0.40560  Biso   1.000  C 
  H123     1.0000 0.26770  0.77540  0.44480  Biso   1.000  H 
  H124     1.0000 0.14400  0.95930  0.46950  Biso   1.000  H 
  H125     1.0000 0.09180  0.92380  0.52850  Biso   1.000  H 
  O53      1.0000 0.82740  0.90370  0.39240  Biso   1.000  O 
  H126     1.0000 0.83540  0.95259  0.41759  Biso   1.000  H 
  H127     1.0000 0.78007  0.90635  0.36375  Biso   1.000  H 
  C143     1.0000 0.14610  0.70660  0.21110  Biso   1.000  C 
  H128     1.0000 0.14480  0.67310  0.24950  Biso   1.000  H 
  C144     1.0000 0.19110  0.69170  0.15150  Biso   1.000  C 
  C145     1.0000 0.23740  0.62120  0.14520  Biso   1.000  C 
  O54      1.0000 0.23780  0.57517  0.19618  Biso   1.000  O 
  O55      1.0000 0.27263  0.61231  0.08754  Biso   1.000  O 
  C146     1.0000 0.19380  0.74280  0.09440  Biso   1.000  C 
  H129     1.0000 0.22460  0.73230  0.05520  Biso   1.000  H 
  H130     1.0000 0.07430  0.86510  0.15450  Biso   1.000  H 
  C147     1.0000 0.07850  0.89480  0.02180  Biso   1.000  C 
  C148     1.0000 0.05980  0.96430  0.06680  Biso   1.000  C 
  O56      1.0000 0.99343  0.97657  0.08125  Biso   1.000  O 
  H131     1.0000 0.04070  0.85600  0.03050  Biso   1.000  H 
  H132     1.0000 0.07620  0.90820  0.97150  Biso   1.000  H 
  O57      1.0000 0.26220  0.07517  0.05382  Biso   1.000  O 
  C149     1.0000 0.26260  0.12120  0.10480  Biso   1.000  C 
  O58      1.0000 0.22737  0.11231  0.16246  Biso   1.000  O 
  C150     1.0000 0.30890  0.19170  0.09850  Biso   1.000  C 
  C151     1.0000 0.35390  0.20660  0.03890  Biso   1.000  C 
  H133     1.0000 0.35520  0.17310  0.00050  Biso   1.000  H 
  C152     1.0000 0.39720  0.27310  0.03782  Biso   1.000  C 
  C153     1.0000 0.39510  0.32220  0.09600  Biso   1.000  C 
  H134     1.0000 0.42570  0.36510  0.09550  Biso   1.000  H 
  C154     1.0000 0.34850  0.30893  0.15508  Biso   1.000  C 
  N20      1.0000 0.34531  0.36341  0.21207  Biso   1.000  N 
  C155     1.0000 0.31010  0.33810  0.27990  Biso   1.000  C 
  H135     1.0000 0.26140  0.31480  0.27020  Biso   1.000  H 
  H136     1.0000 0.34220  0.30090  0.30320  Biso   1.000  H 
  C156     1.0000 0.29980  0.40620  0.32810  Biso   1.000  C 
  O59      1.0000 0.30150  0.39820  0.39329  Biso   1.000  O 
  O60      1.0000 0.28948  0.47035  0.29690  Biso   1.000  O 
  C157     1.0000 0.42150  0.39480  0.22820  Biso   1.000  C 
  H137     1.0000 0.45930  0.35600  0.21950  Biso   1.000  H 
  C158     1.0000 0.44020  0.46430  0.18320  Biso   1.000  C 
  O61      1.0000 0.50657  0.47657  0.16875  Biso   1.000  O 
  O62      1.0000 0.38389  0.50542  0.16370  Biso   1.000  O 
  H138     1.0000 0.42380  0.40820  0.27850  Biso   1.000  H 
  C159     1.0000 0.30620  0.24280  0.15560  Biso   1.000  C 
  H139     1.0000 0.27540  0.23230  0.19480  Biso   1.000  H 
  O63      1.0000 0.09630  0.17260  0.10760  Biso   1.000  O 
  H140     1.0000 0.04741  0.16460  0.08241  Biso   1.000  H 
  H141     1.0000 0.09365  0.21993  0.13625  Biso   1.000  H 
  H142     1.0000 0.16830  0.42190  0.51310  Biso   1.000  H 
  H143     1.0000 0.08390  0.41180  0.53710  Biso   1.000  H 
  C160     1.0000 0.75720  0.69380  0.34440  Biso   1.000  C 
  H144     1.0000 0.76770  0.72460  0.30520  Biso   1.000  H 
  C161     1.0000 0.64610  0.79340  0.53890  Biso   1.000  C 
  H145     1.0000 0.64480  0.82690  0.50050  Biso   1.000  H 
  C162     1.0000 0.69110  0.80830  0.59850  Biso   1.000  C 
  C163     1.0000 0.73740  0.87880  0.60480  Biso   1.000  C 
  O64      1.0000 0.73780  0.92483  0.55382  Biso   1.000  O 
  O65      1.0000 0.77263  0.88769  0.66246  Biso   1.000  O 
  Ni16     1.0000 0.88221  0.91994  0.67630  Biso   1.000  Ni
  O66      1.0000 0.90370  0.82740  0.60760  Biso   1.000  O 
  H146     1.0000 0.90635  0.78007  0.63624  Biso   1.000  H 
  H147     1.0000 0.95259  0.83540  0.58241  Biso   1.000  H 
  O67      1.0000 0.99799  0.93657  0.68880  Biso   1.000  O 
  H148     1.0000 0.00818  0.99114  0.69733  Biso   1.000  H 
  H149     1.0000 0.01635  0.90657  0.73034  Biso   1.000  H 
  O68      1.0000 0.88389  0.99458  0.58630  Biso   1.000  O 
  C164     1.0000 0.94020  0.03570  0.56680  Biso   1.000  C 
  O69      1.0000 0.00657  0.02343  0.58125  Biso   1.000  O 
  C165     1.0000 0.92150  0.10520  0.52180  Biso   1.000  C 
  H150     1.0000 0.92380  0.09180  0.47150  Biso   1.000  H 
  H151     1.0000 0.95930  0.14400  0.53050  Biso   1.000  H 
  N21      1.0000 0.88610  0.85240  0.76895  Biso   1.000  N 
  C166     1.0000 0.82530  0.84610  0.81110  Biso   1.000  C 
  H152     1.0000 0.78180  0.87300  0.79920  Biso   1.000  H 
  C167     1.0000 0.82460  0.80090  0.87180  Biso   1.000  C 
  H153     1.0000 0.78110  0.79820  0.89980  Biso   1.000  H 
  C168     1.0000 0.88770  0.75970  0.89130  Biso   1.000  C 
  C169     1.0000 0.88660  0.70840  0.95480  Biso   1.000  C 
  H154     1.0000 0.83870  0.71410  0.97960  Biso   1.000  H 
  C170     1.0000 0.89740  0.62570  0.93520  Biso   1.000  C 
  H155     1.0000 0.86270  0.61290  0.89670  Biso   1.000  H 
  H156     1.0000 0.94850  0.61850  0.91760  Biso   1.000  H 
  C171     1.0000 0.88390  0.57290  0.99760  Biso   1.000  C 
  C172     1.0000 0.89910  0.49000  0.98100  Biso   1.000  C 
  C173     1.0000 0.85610  0.44720  0.93490  Biso   1.000  C 
  H157     1.0000 0.81520  0.46910  0.91130  Biso   1.000  H 
  C174     1.0000 0.87310  0.37190  0.92330  Biso   1.000  C 
  N22      1.0000 0.93070  0.33670  0.95607  Biso   1.000  N 
  C175     1.0000 0.97430  0.37780  0.99950  Biso   1.000  C 
  C176     1.0000 0.96080  0.45330  0.01350  Biso   1.000  C 
  H158     1.0000 0.99250  0.47990  0.04440  Biso   1.000  H 
  H159     1.0000 0.01550  0.35450  0.02130  Biso   1.000  H 
  H160     1.0000 0.84340  0.34450  0.89130  Biso   1.000  H 
  H161     1.0000 0.91610  0.58820  0.03710  Biso   1.000  H 
  H162     1.0000 0.83170  0.57810  0.01310  Biso   1.000  H 
  H163     1.0000 0.92650  0.72340  0.98760  Biso   1.000  H 
  C177     1.0000 0.94820  0.76670  0.84750  Biso   1.000  C 
  H164     1.0000 0.99210  0.73980  0.85780  Biso   1.000  H 
  C178     1.0000 0.94640  0.81250  0.78780  Biso   1.000  C 
  H165     1.0000 0.98960  0.81550  0.75940  Biso   1.000  H 
  O70      1.0000 0.84884  0.00910  0.73477  Biso   1.000  O 
  C179     1.0000 0.69380  0.75720  0.65560  Biso   1.000  C 
  H166     1.0000 0.72460  0.76770  0.69480  Biso   1.000  H 
  H167     1.0000 0.57620  0.59180  0.77850  Biso   1.000  H 
  C180     1.0000 0.80620  0.25720  0.59440  Biso   1.000  C 
  H168     1.0000 0.77540  0.26770  0.55520  Biso   1.000  H 
  O71      1.0000 0.80150  0.10180  0.35671  Biso   1.000  O 
  C181     1.0000 0.70660  0.14610  0.78890  Biso   1.000  C 
  H169     1.0000 0.67310  0.14480  0.75050  Biso   1.000  H 
  C182     1.0000 0.69170  0.19110  0.84850  Biso   1.000  C 
  C183     1.0000 0.62120  0.23740  0.85480  Biso   1.000  C 
  O72      1.0000 0.57517  0.23780  0.80382  Biso   1.000  O 
  O73      1.0000 0.61231  0.27263  0.91246  Biso   1.000  O 
  C184     1.0000 0.74280  0.19380  0.90560  Biso   1.000  C 
  H170     1.0000 0.73230  0.22460  0.94480  Biso   1.000  H 
  H171     1.0000 0.86510  0.07430  0.84550  Biso   1.000  H 
  C185     1.0000 0.24280  0.30620  0.84440  Biso   1.000  C 
  H172     1.0000 0.23230  0.27540  0.80520  Biso   1.000  H 
  H173     1.0000 0.36510  0.42570  0.90450  Biso   1.000  H 
  C186     1.0000 0.39480  0.42150  0.77180  Biso   1.000  C 
  H174     1.0000 0.40820  0.42380  0.72150  Biso   1.000  H 
  H175     1.0000 0.35600  0.45930  0.78050  Biso   1.000  H 
  C187     1.0000 0.46430  0.44020  0.81680  Biso   1.000  C 
  O74      1.0000 0.47657  0.50657  0.83125  Biso   1.000  O 
  O75      1.0000 0.50542  0.38389  0.83630  Biso   1.000  O 
  O76      1.0000 0.39820  0.30150  0.60671  Biso   1.000  O 
  N23      1.0000 0.43070  0.16330  0.79393  Biso   1.000  N 
  C188     1.0000 0.37310  0.12810  0.82670  Biso   1.000  C 
  H176     1.0000 0.34340  0.15550  0.85870  Biso   1.000  H 
  C189     1.0000 0.35610  0.05280  0.81510  Biso   1.000  C 
  H177     1.0000 0.31520  0.03090  0.83870  Biso   1.000  H 
  C190     1.0000 0.39910  0.01000  0.76900  Biso   1.000  C 
  C191     1.0000 0.46080  0.04670  0.73650  Biso   1.000  C 
  H178     1.0000 0.49250  0.02010  0.70560  Biso   1.000  H 
  C192     1.0000 0.47430  0.12220  0.75050  Biso   1.000  C 
  H179     1.0000 0.51550  0.14550  0.72870  Biso   1.000  H 
  C193     1.0000 0.38390  0.92710  0.75240  Biso   1.000  C 
  H180     1.0000 0.33170  0.92190  0.73690  Biso   1.000  H 
  H181     1.0000 0.41610  0.91180  0.71290  Biso   1.000  H 
  C194     1.0000 0.39740  0.87430  0.81480  Biso   1.000  C 
  H182     1.0000 0.36270  0.88710  0.85330  Biso   1.000  H 
  H183     1.0000 0.44850  0.88150  0.83240  Biso   1.000  H 
  C195     1.0000 0.38660  0.79160  0.79520  Biso   1.000  C 
  H184     1.0000 0.42650  0.77660  0.76240  Biso   1.000  H 
  H185     1.0000 0.33870  0.78590  0.77040  Biso   1.000  H 
  C196     1.0000 0.38770  0.74030  0.85870  Biso   1.000  C 
  C197     1.0000 0.44820  0.73330  0.90250  Biso   1.000  C 
  C198     1.0000 0.44640  0.68750  0.96220  Biso   1.000  C 
  H186     1.0000 0.48960  0.68450  0.99060  Biso   1.000  H 
  N24      1.0000 0.38610  0.64760  0.98105  Biso   1.000  N 
  C199     1.0000 0.32530  0.65390  0.93890  Biso   1.000  C 
  H187     1.0000 0.28180  0.62700  0.95080  Biso   1.000  H 
  C200     1.0000 0.32460  0.69910  0.87820  Biso   1.000  C 
  H188     1.0000 0.28110  0.70180  0.85020  Biso   1.000  H 
  H189     1.0000 0.49210  0.76020  0.89220  Biso   1.000  H 
  O77      1.0000 0.67260  0.40370  0.85760  Biso   1.000  O 
  H190     1.0000 0.66460  0.45259  0.83241  Biso   1.000  H 
  H191     1.0000 0.71993  0.40635  0.88624  Biso   1.000  H 
  O78      1.0000 0.56343  0.49799  0.93880  Biso   1.000  O 
  H192     1.0000 0.59343  0.51635  0.98034  Biso   1.000  H 
  H193     1.0000 0.50886  0.50818  0.94733  Biso   1.000  H 
  H194     1.0000 0.76020  0.49210  0.10780  Biso   1.000  H 
  H195     1.0000 0.91180  0.41610  0.28710  Biso   1.000  H 
  H196     1.0000 0.92190  0.33170  0.26310  Biso   1.000  H 
  O79      1.0000 0.49799  0.56343  0.06120  Biso   1.000  O 
  H197     1.0000 0.50818  0.50886  0.05267  Biso   1.000  H 
  H198     1.0000 0.51635  0.59343  0.01966  Biso   1.000  H 
  O80      1.0000 0.40370  0.67260  0.14240  Biso   1.000  O 
  H199     1.0000 0.40635  0.71993  0.11375  Biso   1.000  H 
  H200     1.0000 0.45259  0.66460  0.16759  Biso   1.000  H 
