data_image0
_cell_length_a       23.4246
_cell_length_b       23.4246
_cell_length_c       21.3264
_cell_angle_alpha    90
_cell_angle_beta     90
_cell_angle_gamma    90

_symmetry_space_group_name_H-M    "P 1"
_symmetry_int_tables_number       1

loop_
  _symmetry_equiv_pos_as_xyz
  'x, y, z'

loop_
  _atom_site_label
  _atom_site_occupancy
  _atom_site_fract_x
  _atom_site_fract_y
  _atom_site_fract_z
  _atom_site_thermal_displace_type
  _atom_site_B_iso_or_equiv
  _atom_site_type_symbol
  C1       1.0000 0.48630  0.94292  0.00120  Biso   1.000  C 
  C2       1.0000 0.98630  0.05708  0.24880  Biso   1.000  C 
  C3       1.0000 0.51370  0.55708  0.24880  Biso   1.000  C 
  C4       1.0000 0.01370  0.55708  0.50120  Biso   1.000  C 
  C5       1.0000 0.51370  0.44292  0.74880  Biso   1.000  C 
  C6       1.0000 0.98630  0.94292  0.74880  Biso   1.000  C 
  C7       1.0000 0.01370  0.44292  0.00120  Biso   1.000  C 
  C8       1.0000 0.48630  0.05708  0.50120  Biso   1.000  C 
  C9       1.0000 0.05708  0.98630  0.25120  Biso   1.000  C 
  C10      1.0000 0.94292  0.48630  0.49880  Biso   1.000  C 
  C11      1.0000 0.55708  0.01370  0.99880  Biso   1.000  C 
  C12      1.0000 0.05708  0.48630  0.99880  Biso   1.000  C 
  C13      1.0000 0.44292  0.01370  0.49880  Biso   1.000  C 
  C14      1.0000 0.94292  0.98630  0.75120  Biso   1.000  C 
  C15      1.0000 0.44292  0.51370  0.75120  Biso   1.000  C 
  C16      1.0000 0.55708  0.51370  0.25120  Biso   1.000  C 
  C17      1.0000 0.98630  0.44292  0.50120  Biso   1.000  C 
  C18      1.0000 0.48630  0.55708  0.74880  Biso   1.000  C 
  C19      1.0000 0.01370  0.05708  0.74880  Biso   1.000  C 
  C20      1.0000 0.51370  0.05708  0.00120  Biso   1.000  C 
  C21      1.0000 0.01370  0.94292  0.24880  Biso   1.000  C 
  C22      1.0000 0.48630  0.44292  0.24880  Biso   1.000  C 
  C23      1.0000 0.51370  0.94292  0.50120  Biso   1.000  C 
  C24      1.0000 0.98630  0.55708  0.00120  Biso   1.000  C 
  C25      1.0000 0.55708  0.48630  0.75120  Biso   1.000  C 
  C26      1.0000 0.44292  0.98630  0.99880  Biso   1.000  C 
  C27      1.0000 0.05708  0.51370  0.49880  Biso   1.000  C 
  C28      1.0000 0.55708  0.98630  0.49880  Biso   1.000  C 
  C29      1.0000 0.94292  0.51370  0.99880  Biso   1.000  C 
  C30      1.0000 0.44292  0.48630  0.25120  Biso   1.000  C 
  C31      1.0000 0.94292  0.01370  0.25120  Biso   1.000  C 
  C32      1.0000 0.05708  0.01370  0.75120  Biso   1.000  C 
  C33      1.0000 0.54418  0.95582  0.00000  Biso   1.000  C 
  C34      1.0000 0.04418  0.04418  0.25000  Biso   1.000  C 
  C35      1.0000 0.45582  0.54418  0.25000  Biso   1.000  C 
  C36      1.0000 0.95582  0.54418  0.50000  Biso   1.000  C 
  C37      1.0000 0.45582  0.45582  0.75000  Biso   1.000  C 
  C38      1.0000 0.04418  0.95582  0.75000  Biso   1.000  C 
  C39      1.0000 0.95582  0.45582  0.00000  Biso   1.000  C 
  C40      1.0000 0.54418  0.04418  0.50000  Biso   1.000  C 
  C41      1.0000 0.04418  0.54418  0.00000  Biso   1.000  C 
  C42      1.0000 0.45582  0.95582  0.50000  Biso   1.000  C 
  C43      1.0000 0.95582  0.04418  0.75000  Biso   1.000  C 
  C44      1.0000 0.54418  0.45582  0.25000  Biso   1.000  C 
  C45      1.0000 0.04418  0.45582  0.50000  Biso   1.000  C 
  C46      1.0000 0.54418  0.54418  0.75000  Biso   1.000  C 
  C47      1.0000 0.45582  0.04418  0.00000  Biso   1.000  C 
  C48      1.0000 0.95582  0.95582  0.25000  Biso   1.000  C 
  H1       1.0000 0.57230  0.92770  0.00000  Biso   1.000  H 
  H2       1.0000 0.07230  0.07230  0.25000  Biso   1.000  H 
  H3       1.0000 0.42770  0.57230  0.25000  Biso   1.000  H 
  H4       1.0000 0.92770  0.57230  0.50000  Biso   1.000  H 
  H5       1.0000 0.42770  0.42770  0.75000  Biso   1.000  H 
  H6       1.0000 0.07230  0.92770  0.75000  Biso   1.000  H 
  H7       1.0000 0.92770  0.42770  0.00000  Biso   1.000  H 
  H8       1.0000 0.57230  0.07230  0.50000  Biso   1.000  H 
  H9       1.0000 0.07230  0.57230  0.00000  Biso   1.000  H 
  H10      1.0000 0.42770  0.92770  0.50000  Biso   1.000  H 
  H11      1.0000 0.92770  0.07230  0.75000  Biso   1.000  H 
  H12      1.0000 0.57230  0.42770  0.25000  Biso   1.000  H 
  H13      1.0000 0.07230  0.42770  0.50000  Biso   1.000  H 
  H14      1.0000 0.57230  0.57230  0.75000  Biso   1.000  H 
  H15      1.0000 0.42770  0.07230  0.00000  Biso   1.000  H 
  H16      1.0000 0.92770  0.92770  0.25000  Biso   1.000  H 
  C49      1.0000 0.31070  0.87690  0.11192  Biso   1.000  C 
  C50      1.0000 0.81070  0.12310  0.13808  Biso   1.000  C 
  C51      1.0000 0.68930  0.62310  0.13808  Biso   1.000  C 
  C52      1.0000 0.18930  0.62310  0.61192  Biso   1.000  C 
  C53      1.0000 0.68930  0.37690  0.63808  Biso   1.000  C 
  C54      1.0000 0.81070  0.87690  0.63808  Biso   1.000  C 
  C55      1.0000 0.18930  0.37690  0.11192  Biso   1.000  C 
  C56      1.0000 0.31070  0.12310  0.61192  Biso   1.000  C 
  C57      1.0000 0.12310  0.81070  0.36192  Biso   1.000  C 
  C58      1.0000 0.87690  0.31070  0.38808  Biso   1.000  C 
  C59      1.0000 0.62310  0.18930  0.88808  Biso   1.000  C 
  C60      1.0000 0.12310  0.31070  0.88808  Biso   1.000  C 
  C61      1.0000 0.37690  0.18930  0.38808  Biso   1.000  C 
  C62      1.0000 0.87690  0.81070  0.86192  Biso   1.000  C 
  C63      1.0000 0.37690  0.68930  0.86192  Biso   1.000  C 
  C64      1.0000 0.62310  0.68930  0.36192  Biso   1.000  C 
  C65      1.0000 0.81070  0.37690  0.61192  Biso   1.000  C 
  C66      1.0000 0.31070  0.62310  0.63808  Biso   1.000  C 
  C67      1.0000 0.18930  0.12310  0.63808  Biso   1.000  C 
  C68      1.0000 0.68930  0.12310  0.11192  Biso   1.000  C 
  C69      1.0000 0.18930  0.87690  0.13808  Biso   1.000  C 
  C70      1.0000 0.31070  0.37690  0.13808  Biso   1.000  C 
  C71      1.0000 0.68930  0.87690  0.61192  Biso   1.000  C 
  C72      1.0000 0.81070  0.62310  0.11192  Biso   1.000  C 
  C73      1.0000 0.62310  0.31070  0.86192  Biso   1.000  C 
  C74      1.0000 0.37690  0.81070  0.88808  Biso   1.000  C 
  C75      1.0000 0.12310  0.68930  0.38808  Biso   1.000  C 
  C76      1.0000 0.62310  0.81070  0.38808  Biso   1.000  C 
  C77      1.0000 0.87690  0.68930  0.88808  Biso   1.000  C 
  C78      1.0000 0.37690  0.31070  0.36192  Biso   1.000  C 
  C79      1.0000 0.87690  0.18930  0.36192  Biso   1.000  C 
  C80      1.0000 0.12310  0.18930  0.86192  Biso   1.000  C 
  C81      1.0000 0.26800  0.87910  0.06100  Biso   1.000  C 
  C82      1.0000 0.76800  0.12090  0.18900  Biso   1.000  C 
  C83      1.0000 0.73200  0.62090  0.18900  Biso   1.000  C 
  C84      1.0000 0.23200  0.62090  0.56100  Biso   1.000  C 
  C85      1.0000 0.73200  0.37910  0.68900  Biso   1.000  C 
  C86      1.0000 0.76800  0.87910  0.68900  Biso   1.000  C 
  C87      1.0000 0.23200  0.37910  0.06100  Biso   1.000  C 
  C88      1.0000 0.26800  0.12090  0.56100  Biso   1.000  C 
  C89      1.0000 0.12090  0.76800  0.31100  Biso   1.000  C 
  C90      1.0000 0.87910  0.26800  0.43900  Biso   1.000  C 
  C91      1.0000 0.62090  0.23200  0.93900  Biso   1.000  C 
  C92      1.0000 0.12090  0.26800  0.93900  Biso   1.000  C 
  C93      1.0000 0.37910  0.23200  0.43900  Biso   1.000  C 
  C94      1.0000 0.87910  0.76800  0.81100  Biso   1.000  C 
  C95      1.0000 0.37910  0.73200  0.81100  Biso   1.000  C 
  C96      1.0000 0.62090  0.73200  0.31100  Biso   1.000  C 
  C97      1.0000 0.76800  0.37910  0.56100  Biso   1.000  C 
  C98      1.0000 0.26800  0.62090  0.68900  Biso   1.000  C 
  C99      1.0000 0.23200  0.12090  0.68900  Biso   1.000  C 
  C100     1.0000 0.73200  0.12090  0.06100  Biso   1.000  C 
  C101     1.0000 0.23200  0.87910  0.18900  Biso   1.000  C 
  C102     1.0000 0.26800  0.37910  0.18900  Biso   1.000  C 
  C103     1.0000 0.73200  0.87910  0.56100  Biso   1.000  C 
  C104     1.0000 0.76800  0.62090  0.06100  Biso   1.000  C 
  C105     1.0000 0.62090  0.26800  0.81100  Biso   1.000  C 
  C106     1.0000 0.37910  0.76800  0.93900  Biso   1.000  C 
  C107     1.0000 0.12090  0.73200  0.43900  Biso   1.000  C 
  C108     1.0000 0.62090  0.76800  0.43900  Biso   1.000  C 
  C109     1.0000 0.87910  0.73200  0.93900  Biso   1.000  C 
  C110     1.0000 0.37910  0.26800  0.31100  Biso   1.000  C 
  C111     1.0000 0.87910  0.23200  0.31100  Biso   1.000  C 
  C112     1.0000 0.12090  0.23200  0.81100  Biso   1.000  C 
  C113     1.0000 0.29240  0.87610  0.17520  Biso   1.000  C 
  C114     1.0000 0.79240  0.12390  0.07480  Biso   1.000  C 
  C115     1.0000 0.70760  0.62390  0.07480  Biso   1.000  C 
  C116     1.0000 0.20760  0.62390  0.67520  Biso   1.000  C 
  C117     1.0000 0.70760  0.37610  0.57480  Biso   1.000  C 
  C118     1.0000 0.79240  0.87610  0.57480  Biso   1.000  C 
  C119     1.0000 0.20760  0.37610  0.17520  Biso   1.000  C 
  C120     1.0000 0.29240  0.12390  0.67520  Biso   1.000  C 
  C121     1.0000 0.12390  0.79240  0.42520  Biso   1.000  C 
  C122     1.0000 0.87610  0.29240  0.32480  Biso   1.000  C 
  C123     1.0000 0.62390  0.20760  0.82480  Biso   1.000  C 
  C124     1.0000 0.12390  0.29240  0.82480  Biso   1.000  C 
  C125     1.0000 0.37610  0.20760  0.32480  Biso   1.000  C 
  C126     1.0000 0.87610  0.79240  0.92520  Biso   1.000  C 
  C127     1.0000 0.37610  0.70760  0.92520  Biso   1.000  C 
  C128     1.0000 0.62390  0.70760  0.42520  Biso   1.000  C 
  C129     1.0000 0.79240  0.37610  0.67520  Biso   1.000  C 
  C130     1.0000 0.29240  0.62390  0.57480  Biso   1.000  C 
  C131     1.0000 0.20760  0.12390  0.57480  Biso   1.000  C 
  C132     1.0000 0.70760  0.12390  0.17520  Biso   1.000  C 
  C133     1.0000 0.20760  0.87610  0.07480  Biso   1.000  C 
  C134     1.0000 0.29240  0.37610  0.07480  Biso   1.000  C 
  C135     1.0000 0.70760  0.87610  0.67520  Biso   1.000  C 
  C136     1.0000 0.79240  0.62390  0.17520  Biso   1.000  C 
  C137     1.0000 0.62390  0.29240  0.92520  Biso   1.000  C 
  C138     1.0000 0.37610  0.79240  0.82480  Biso   1.000  C 
  C139     1.0000 0.12390  0.70760  0.32480  Biso   1.000  C 
  C140     1.0000 0.62390  0.79240  0.32480  Biso   1.000  C 
  C141     1.0000 0.87610  0.70760  0.82480  Biso   1.000  C 
  C142     1.0000 0.37610  0.29240  0.42520  Biso   1.000  C 
  C143     1.0000 0.87610  0.20760  0.42520  Biso   1.000  C 
  C144     1.0000 0.12390  0.20760  0.92520  Biso   1.000  C 
  H17      1.0000 0.31890  0.87360  0.20750  Biso   1.000  H 
  H18      1.0000 0.81890  0.12640  0.04250  Biso   1.000  H 
  H19      1.0000 0.68110  0.62640  0.04250  Biso   1.000  H 
  H20      1.0000 0.18110  0.62640  0.70750  Biso   1.000  H 
  H21      1.0000 0.68110  0.37360  0.54250  Biso   1.000  H 
  H22      1.0000 0.81890  0.87360  0.54250  Biso   1.000  H 
  H23      1.0000 0.18110  0.37360  0.20750  Biso   1.000  H 
  H24      1.0000 0.31890  0.12640  0.70750  Biso   1.000  H 
  H25      1.0000 0.12640  0.81890  0.45750  Biso   1.000  H 
  H26      1.0000 0.87360  0.31890  0.29250  Biso   1.000  H 
  H27      1.0000 0.62640  0.18110  0.79250  Biso   1.000  H 
  H28      1.0000 0.12640  0.31890  0.79250  Biso   1.000  H 
  H29      1.0000 0.37360  0.18110  0.29250  Biso   1.000  H 
  H30      1.0000 0.87360  0.81890  0.95750  Biso   1.000  H 
  H31      1.0000 0.37360  0.68110  0.95750  Biso   1.000  H 
  H32      1.0000 0.62640  0.68110  0.45750  Biso   1.000  H 
  H33      1.0000 0.81890  0.37360  0.70750  Biso   1.000  H 
  H34      1.0000 0.31890  0.62640  0.54250  Biso   1.000  H 
  H35      1.0000 0.18110  0.12640  0.54250  Biso   1.000  H 
  H36      1.0000 0.68110  0.12640  0.20750  Biso   1.000  H 
  H37      1.0000 0.18110  0.87360  0.04250  Biso   1.000  H 
  H38      1.0000 0.31890  0.37360  0.04250  Biso   1.000  H 
  H39      1.0000 0.68110  0.87360  0.70750  Biso   1.000  H 
  H40      1.0000 0.81890  0.62640  0.20750  Biso   1.000  H 
  H41      1.0000 0.62640  0.31890  0.95750  Biso   1.000  H 
  H42      1.0000 0.37360  0.81890  0.79250  Biso   1.000  H 
  H43      1.0000 0.12640  0.68110  0.29250  Biso   1.000  H 
  H44      1.0000 0.62640  0.81890  0.29250  Biso   1.000  H 
  H45      1.0000 0.87360  0.68110  0.79250  Biso   1.000  H 
  H46      1.0000 0.37360  0.31890  0.45750  Biso   1.000  H 
  H47      1.0000 0.87360  0.18110  0.45750  Biso   1.000  H 
  H48      1.0000 0.12640  0.18110  0.95750  Biso   1.000  H 
  O1       1.0000 0.46891  0.89070  0.00650  Biso   1.000  O 
  O2       1.0000 0.96891  0.10930  0.24350  Biso   1.000  O 
  O3       1.0000 0.53109  0.60930  0.24350  Biso   1.000  O 
  O4       1.0000 0.03109  0.60930  0.50650  Biso   1.000  O 
  O5       1.0000 0.53109  0.39070  0.74350  Biso   1.000  O 
  O6       1.0000 0.96891  0.89070  0.74350  Biso   1.000  O 
  O7       1.0000 0.03109  0.39070  0.00650  Biso   1.000  O 
  O8       1.0000 0.46891  0.10930  0.50650  Biso   1.000  O 
  O9       1.0000 0.10930  0.96891  0.25650  Biso   1.000  O 
  O10      1.0000 0.89070  0.46891  0.49350  Biso   1.000  O 
  O11      1.0000 0.60930  0.03109  0.99350  Biso   1.000  O 
  O12      1.0000 0.10930  0.46891  0.99350  Biso   1.000  O 
  O13      1.0000 0.39070  0.03109  0.49350  Biso   1.000  O 
  O14      1.0000 0.89070  0.96891  0.75650  Biso   1.000  O 
  O15      1.0000 0.39070  0.53109  0.75650  Biso   1.000  O 
  O16      1.0000 0.60930  0.53109  0.25650  Biso   1.000  O 
  O17      1.0000 0.96891  0.39070  0.50650  Biso   1.000  O 
  O18      1.0000 0.46891  0.60930  0.74350  Biso   1.000  O 
  O19      1.0000 0.03109  0.10930  0.74350  Biso   1.000  O 
  O20      1.0000 0.53109  0.10930  0.00650  Biso   1.000  O 
  O21      1.0000 0.03109  0.89070  0.24350  Biso   1.000  O 
  O22      1.0000 0.46891  0.39070  0.24350  Biso   1.000  O 
  O23      1.0000 0.53109  0.89070  0.50650  Biso   1.000  O 
  O24      1.0000 0.96891  0.60930  0.00650  Biso   1.000  O 
  O25      1.0000 0.60930  0.46891  0.75650  Biso   1.000  O 
  O26      1.0000 0.39070  0.96891  0.99350  Biso   1.000  O 
  O27      1.0000 0.10930  0.53109  0.49350  Biso   1.000  O 
  O28      1.0000 0.60930  0.96891  0.49350  Biso   1.000  O 
  O29      1.0000 0.89070  0.53109  0.99350  Biso   1.000  O 
  O30      1.0000 0.39070  0.46891  0.25650  Biso   1.000  O 
  O31      1.0000 0.89070  0.03109  0.25650  Biso   1.000  O 
  O32      1.0000 0.10930  0.03109  0.75650  Biso   1.000  O 
  O33      1.0000 0.36018  0.87643  0.09960  Biso   1.000  O 
  O34      1.0000 0.86018  0.12357  0.15040  Biso   1.000  O 
  O35      1.0000 0.63982  0.62357  0.15040  Biso   1.000  O 
  O36      1.0000 0.13982  0.62357  0.59960  Biso   1.000  O 
  O37      1.0000 0.63982  0.37643  0.65040  Biso   1.000  O 
  O38      1.0000 0.86018  0.87643  0.65040  Biso   1.000  O 
  O39      1.0000 0.13982  0.37643  0.09960  Biso   1.000  O 
  O40      1.0000 0.36018  0.12357  0.59960  Biso   1.000  O 
  O41      1.0000 0.12357  0.86018  0.34960  Biso   1.000  O 
  O42      1.0000 0.87643  0.36018  0.40040  Biso   1.000  O 
  O43      1.0000 0.62357  0.13982  0.90040  Biso   1.000  O 
  O44      1.0000 0.12357  0.36018  0.90040  Biso   1.000  O 
  O45      1.0000 0.37643  0.13982  0.40040  Biso   1.000  O 
  O46      1.0000 0.87643  0.86018  0.84960  Biso   1.000  O 
  O47      1.0000 0.37643  0.63982  0.84960  Biso   1.000  O 
  O48      1.0000 0.62357  0.63982  0.34960  Biso   1.000  O 
  O49      1.0000 0.86018  0.37643  0.59960  Biso   1.000  O 
  O50      1.0000 0.36018  0.62357  0.65040  Biso   1.000  O 
  O51      1.0000 0.13982  0.12357  0.65040  Biso   1.000  O 
  O52      1.0000 0.63982  0.12357  0.09960  Biso   1.000  O 
  O53      1.0000 0.13982  0.87643  0.15040  Biso   1.000  O 
  O54      1.0000 0.36018  0.37643  0.15040  Biso   1.000  O 
  O55      1.0000 0.63982  0.87643  0.59960  Biso   1.000  O 
  O56      1.0000 0.86018  0.62357  0.09960  Biso   1.000  O 
  O57      1.0000 0.62357  0.36018  0.84960  Biso   1.000  O 
  O58      1.0000 0.37643  0.86018  0.90040  Biso   1.000  O 
  O59      1.0000 0.12357  0.63982  0.40040  Biso   1.000  O 
  O60      1.0000 0.62357  0.86018  0.40040  Biso   1.000  O 
  O61      1.0000 0.87643  0.63982  0.90040  Biso   1.000  O 
  O62      1.0000 0.37643  0.36018  0.34960  Biso   1.000  O 
  O63      1.0000 0.87643  0.13982  0.34960  Biso   1.000  O 
  O64      1.0000 0.12357  0.13982  0.84960  Biso   1.000  O 
  O65      1.0000 0.28750  0.88250  0.00638  Biso   1.000  O 
  O66      1.0000 0.78750  0.11750  0.24362  Biso   1.000  O 
  O67      1.0000 0.71250  0.61750  0.24362  Biso   1.000  O 
  O68      1.0000 0.21250  0.61750  0.50638  Biso   1.000  O 
  O69      1.0000 0.71250  0.38250  0.74362  Biso   1.000  O 
  O70      1.0000 0.78750  0.88250  0.74362  Biso   1.000  O 
  O71      1.0000 0.21250  0.38250  0.00638  Biso   1.000  O 
  O72      1.0000 0.28750  0.11750  0.50638  Biso   1.000  O 
  O73      1.0000 0.11750  0.78750  0.25638  Biso   1.000  O 
  O74      1.0000 0.88250  0.28750  0.49362  Biso   1.000  O 
  O75      1.0000 0.61750  0.21250  0.99362  Biso   1.000  O 
  O76      1.0000 0.11750  0.28750  0.99362  Biso   1.000  O 
  O77      1.0000 0.38250  0.21250  0.49362  Biso   1.000  O 
  O78      1.0000 0.88250  0.78750  0.75638  Biso   1.000  O 
  O79      1.0000 0.38250  0.71250  0.75638  Biso   1.000  O 
  O80      1.0000 0.61750  0.71250  0.25638  Biso   1.000  O 
  O81      1.0000 0.78750  0.38250  0.50638  Biso   1.000  O 
  O82      1.0000 0.28750  0.61750  0.74362  Biso   1.000  O 
  O83      1.0000 0.21250  0.11750  0.74362  Biso   1.000  O 
  O84      1.0000 0.71250  0.11750  0.00638  Biso   1.000  O 
  O85      1.0000 0.21250  0.88250  0.24362  Biso   1.000  O 
  O86      1.0000 0.28750  0.38250  0.24362  Biso   1.000  O 
  O87      1.0000 0.71250  0.88250  0.50638  Biso   1.000  O 
  O88      1.0000 0.78750  0.61750  0.00638  Biso   1.000  O 
  O89      1.0000 0.61750  0.28750  0.75638  Biso   1.000  O 
  O90      1.0000 0.38250  0.78750  0.99362  Biso   1.000  O 
  O91      1.0000 0.11750  0.71250  0.49362  Biso   1.000  O 
  O92      1.0000 0.61750  0.78750  0.49362  Biso   1.000  O 
  O93      1.0000 0.88250  0.71250  0.99362  Biso   1.000  O 
  O94      1.0000 0.38250  0.28750  0.25638  Biso   1.000  O 
  O95      1.0000 0.88250  0.21250  0.25638  Biso   1.000  O 
  O96      1.0000 0.11750  0.21250  0.75638  Biso   1.000  O 
  Mn1      1.0000 0.37919  0.87919  0.00000  Biso   1.000  Mn
  Mn2      1.0000 0.87919  0.12081  0.25000  Biso   1.000  Mn
  Mn3      1.0000 0.62081  0.62081  0.25000  Biso   1.000  Mn
  Mn4      1.0000 0.12081  0.62081  0.50000  Biso   1.000  Mn
  Mn5      1.0000 0.62081  0.37919  0.75000  Biso   1.000  Mn
  Mn6      1.0000 0.87919  0.87919  0.75000  Biso   1.000  Mn
  Mn7      1.0000 0.12081  0.37919  0.00000  Biso   1.000  Mn
  Mn8      1.0000 0.37919  0.12081  0.50000  Biso   1.000  Mn
  Mn9      1.0000 0.12081  0.87919  0.25000  Biso   1.000  Mn
  Mn10     1.0000 0.87919  0.37919  0.50000  Biso   1.000  Mn
  Mn11     1.0000 0.62081  0.12081  0.00000  Biso   1.000  Mn
  Mn12     1.0000 0.37919  0.62081  0.75000  Biso   1.000  Mn
  Mn13     1.0000 0.12081  0.12081  0.75000  Biso   1.000  Mn
  Mn14     1.0000 0.37919  0.37919  0.25000  Biso   1.000  Mn
  Mn15     1.0000 0.62081  0.87919  0.50000  Biso   1.000  Mn
  Mn16     1.0000 0.87919  0.62081  0.00000  Biso   1.000  Mn
