data_image0
_cell_length_a       12.722
_cell_length_b       14.935
_cell_length_c       5.7789
_cell_angle_alpha    90
_cell_angle_beta     93.39
_cell_angle_gamma    90

_symmetry_space_group_name_H-M    "P 1"
_symmetry_int_tables_number       1

loop_
  _symmetry_equiv_pos_as_xyz
  'x, y, z'

loop_
  _atom_site_label
  _atom_site_occupancy
  _atom_site_fract_x
  _atom_site_fract_y
  _atom_site_fract_z
  _atom_site_thermal_displace_type
  _atom_site_B_iso_or_equiv
  _atom_site_type_symbol
  Cu1      1.0000 0.77047  0.29571  0.23250  Biso   1.000  Cu
  N1       1.0000 0.86270  0.22100  0.47030  Biso   1.000  N 
  N2       1.0000 0.93870  0.18080  0.43720  Biso   1.000  N 
  N3       1.0000 0.01390  0.14030  0.40070  Biso   1.000  N 
  Cu2      1.0000 0.77047  0.20429  0.73250  Biso   1.000  Cu
  N4       1.0000 0.73310  0.07550  0.65350  Biso   1.000  N 
  C1       1.0000 0.76400  0.00730  0.78720  Biso   1.000  C 
  C2       1.0000 0.73070  0.91970  0.75850  Biso   1.000  C 
  C3       1.0000 0.76280  0.85050  0.90400  Biso   1.000  C 
  H1       1.0000 0.73680  0.79260  0.88440  Biso   1.000  H 
  C4       1.0000 0.83470  0.87180  0.07800  Biso   1.000  C 
  H2       1.0000 0.86010  0.82650  0.17630  Biso   1.000  H 
  C5       1.0000 0.87130  0.95660  0.11520  Biso   1.000  C 
  H3       1.0000 0.92000  0.96690  0.23880  Biso   1.000  H 
  C6       1.0000 0.83980  0.02600  0.98010  Biso   1.000  C 
  H4       1.0000 0.86540  0.08360  0.00850  Biso   1.000  H 
  C7       1.0000 0.65450  0.90220  0.55600  Biso   1.000  C 
  H5       1.0000 0.62750  0.84530  0.52510  Biso   1.000  H 
  C8       1.0000 0.62620  0.97420  0.41700  Biso   1.000  C 
  H6       1.0000 0.58110  0.96700  0.28580  Biso   1.000  H 
  C9       1.0000 0.66610  0.05670  0.47650  Biso   1.000  C 
  H7       1.0000 0.64380  0.10450  0.38270  Biso   1.000  H 
  N5       1.0000 0.67350  0.21300  0.98570  Biso   1.000  N 
  N6       1.0000 0.58930  0.18510  0.97680  Biso   1.000  N 
  N7       1.0000 0.50580  0.15760  0.97760  Biso   1.000  N 
  N8       1.0000 0.86270  0.27900  0.97030  Biso   1.000  N 
  N9       1.0000 0.93870  0.31920  0.93720  Biso   1.000  N 
  N10      1.0000 0.01390  0.35970  0.90070  Biso   1.000  N 
  N11      1.0000 0.67350  0.28700  0.48570  Biso   1.000  N 
  N12      1.0000 0.58930  0.31490  0.47680  Biso   1.000  N 
  N13      1.0000 0.50580  0.34240  0.47760  Biso   1.000  N 
  N14      1.0000 0.73310  0.42450  0.15350  Biso   1.000  N 
  C10      1.0000 0.76400  0.49270  0.28720  Biso   1.000  C 
  C11      1.0000 0.73070  0.58030  0.25850  Biso   1.000  C 
  C12      1.0000 0.76280  0.64950  0.40400  Biso   1.000  C 
  C13      1.0000 0.83470  0.62820  0.57800  Biso   1.000  C 
  C14      1.0000 0.87130  0.54340  0.61520  Biso   1.000  C 
  C15      1.0000 0.83980  0.47400  0.48010  Biso   1.000  C 
  H8       1.0000 0.86540  0.41640  0.50850  Biso   1.000  H 
  H9       1.0000 0.92000  0.53310  0.73880  Biso   1.000  H 
  H10      1.0000 0.86010  0.67350  0.67630  Biso   1.000  H 
  H11      1.0000 0.73680  0.70740  0.38440  Biso   1.000  H 
  C16      1.0000 0.65450  0.59780  0.05600  Biso   1.000  C 
  H12      1.0000 0.62750  0.65470  0.02510  Biso   1.000  H 
  C17      1.0000 0.62620  0.52580  0.91700  Biso   1.000  C 
  H13      1.0000 0.58110  0.53300  0.78580  Biso   1.000  H 
  C18      1.0000 0.66610  0.44330  0.97650  Biso   1.000  C 
  H14      1.0000 0.64380  0.39550  0.88270  Biso   1.000  H 
