data_image0
_cell_length_a       14.832
_cell_length_b       21.306
_cell_length_c       24.678
_cell_angle_alpha    90
_cell_angle_beta     99.075
_cell_angle_gamma    90

_symmetry_space_group_name_H-M    "P 1"
_symmetry_int_tables_number       1

loop_
  _symmetry_equiv_pos_as_xyz
  'x, y, z'

loop_
  _atom_site_label
  _atom_site_occupancy
  _atom_site_fract_x
  _atom_site_fract_y
  _atom_site_fract_z
  _atom_site_thermal_displace_type
  _atom_site_B_iso_or_equiv
  _atom_site_type_symbol
  Cu1      1.0000 0.57918  0.78490  0.34417  Biso   1.000  Cu
  O1       1.0000 0.50062  0.81672  0.39475  Biso   1.000  O 
  C1       1.0000 0.48950  0.78734  0.43743  Biso   1.000  C 
  C2       1.0000 0.42240  0.81362  0.47072  Biso   1.000  C 
  H1       1.0000 0.36130  0.80200  0.45360  Biso   1.000  H 
  H2       1.0000 0.42630  0.85910  0.47020  Biso   1.000  H 
  C3       1.0000 0.43680  0.79163  0.52974  Biso   1.000  C 
  H3       1.0000 0.38550  0.80520  0.54680  Biso   1.000  H 
  H4       1.0000 0.43800  0.74610  0.53040  Biso   1.000  H 
  C4       1.0000 0.52440  0.81621  0.56309  Biso   1.000  C 
  C5       1.0000 0.54780  0.78640  0.61912  Biso   1.000  C 
  H5       1.0000 0.55460  0.74150  0.61450  Biso   1.000  H 
  C6       1.0000 0.63340  0.81120  0.65320  Biso   1.000  C 
  H6       1.0000 0.62720  0.85560  0.65860  Biso   1.000  H 
  H7       1.0000 0.64310  0.79040  0.68820  Biso   1.000  H 
  H8       1.0000 0.68450  0.80360  0.63460  Biso   1.000  H 
  H9       1.0000 0.49710  0.79280  0.63900  Biso   1.000  H 
  H10      1.0000 0.57430  0.80890  0.54280  Biso   1.000  H 
  H11      1.0000 0.51890  0.86120  0.56760  Biso   1.000  H 
  O2       1.0000 0.52940  0.73683  0.45382  Biso   1.000  O 
  Cu2      1.0000 0.62352  0.69883  0.41808  Biso   1.000  Cu
  O3       1.0000 0.52872  0.64568  0.37573  Biso   1.000  O 
  C7       1.0000 0.48060  0.66775  0.33335  Biso   1.000  C 
  C8       1.0000 0.41140  0.62577  0.29951  Biso   1.000  C 
  C9       1.0000 0.43680  0.61545  0.24269  Biso   1.000  C 
  H12      1.0000 0.43840  0.65580  0.22480  Biso   1.000  H 
  H13      1.0000 0.49770  0.59780  0.24690  Biso   1.000  H 
  C10      1.0000 0.37220  0.57256  0.20580  Biso   1.000  C 
  C11      1.0000 0.40320  0.56082  0.15069  Biso   1.000  C 
  H14      1.0000 0.40590  0.60060  0.13190  Biso   1.000  H 
  H15      1.0000 0.46440  0.54340  0.15710  Biso   1.000  H 
  C12      1.0000 0.34100  0.51660  0.11400  Biso   1.000  C 
  H16      1.0000 0.33460  0.47810  0.13320  Biso   1.000  H 
  H17      1.0000 0.28210  0.53570  0.10400  Biso   1.000  H 
  H18      1.0000 0.36680  0.50800  0.08140  Biso   1.000  H 
  H19      1.0000 0.36790  0.53270  0.22430  Biso   1.000  H 
  H20      1.0000 0.31180  0.59130  0.19960  Biso   1.000  H 
  H21      1.0000 0.40900  0.58570  0.31790  Biso   1.000  H 
  H22      1.0000 0.35140  0.64490  0.29600  Biso   1.000  H 
  O4       1.0000 0.48686  0.72221  0.31505  Biso   1.000  O 
  N1       1.0000 0.67184  0.63724  0.48721  Biso   1.000  N 
  C13      1.0000 0.70250  0.57892  0.48337  Biso   1.000  C 
  H23      1.0000 0.70360  0.56240  0.44860  Biso   1.000  H 
  C14      1.0000 0.73250  0.54195  0.52838  Biso   1.000  C 
  H24      1.0000 0.75390  0.50150  0.52390  Biso   1.000  H 
  C15      1.0000 0.73060  0.56569  0.58014  Biso   1.000  C 
  C16      1.0000 0.70150  0.62668  0.58506  Biso   1.000  C 
  H25      1.0000 0.70130  0.64480  0.61930  Biso   1.000  H 
  C17      1.0000 0.67260  0.66010  0.53734  Biso   1.000  C 
  H26      1.0000 0.65260  0.70110  0.54060  Biso   1.000  H 
  S1       1.0000 0.76650  0.51460  0.63607  Biso   1.000  S 
  S2       1.0000 0.72015  0.55451  0.70073  Biso   1.000  S 
  C18      1.0000 0.80810  0.60366  0.73376  Biso   1.000  C 
  C19      1.0000 0.88950  0.61577  0.71615  Biso   1.000  C 
  H27      1.0000 0.90210  0.59850  0.68360  Biso   1.000  H 
  C20      1.0000 0.95240  0.65383  0.74725  Biso   1.000  C 
  H28      1.0000 0.00770  0.66110  0.73510  Biso   1.000  H 
  N2       1.0000 0.93831  0.68091  0.79393  Biso   1.000  N 
  C21      1.0000 0.85860  0.66948  0.81025  Biso   1.000  C 
  H29      1.0000 0.84700  0.68820  0.84250  Biso   1.000  H 
  C22      1.0000 0.79260  0.63144  0.78196  Biso   1.000  C 
  H30      1.0000 0.73800  0.62450  0.79520  Biso   1.000  H 
  Cu3      1.0000 0.04395  0.73342  0.84665  Biso   1.000  Cu
  O5       1.0000 0.14460  0.69661  0.81504  Biso   1.000  O 
  C23      1.0000 0.22720  0.70964  0.83163  Biso   1.000  C 
  C24      1.0000 0.29740  0.67747  0.80249  Biso   1.000  C 
  C25      1.0000 0.26890  0.67185  0.74111  Biso   1.000  C 
  H31      1.0000 0.21110  0.64980  0.73400  Biso   1.000  H 
  C26      1.0000 0.25900  0.73433  0.71102  Biso   1.000  C 
  H32      1.0000 0.20890  0.75750  0.72240  Biso   1.000  H 
  C27      1.0000 0.24160  0.72730  0.64949  Biso   1.000  C 
  H33      1.0000 0.18800  0.70120  0.63940  Biso   1.000  H 
  H34      1.0000 0.29300  0.70540  0.63830  Biso   1.000  H 
  C28      1.0000 0.22730  0.78820  0.61780  Biso   1.000  C 
  H35      1.0000 0.17640  0.81030  0.62840  Biso   1.000  H 
  H36      1.0000 0.21520  0.77930  0.57920  Biso   1.000  H 
  H37      1.0000 0.28120  0.81360  0.62580  Biso   1.000  H 
  H38      1.0000 0.31430  0.75860  0.72150  Biso   1.000  H 
  H39      1.0000 0.31380  0.64660  0.72630  Biso   1.000  H 
  H40      1.0000 0.30900  0.63580  0.81780  Biso   1.000  H 
  H41      1.0000 0.35420  0.70080  0.80970  Biso   1.000  H 
  O6       1.0000 0.25637  0.74561  0.87038  Biso   1.000  O 
  Cu4      1.0000 0.17455  0.78775  0.91406  Biso   1.000  Cu
  O7       1.0000 0.07413  0.82243  0.94761  Biso   1.000  O 
  C29      1.0000 0.99120  0.81556  0.92693  Biso   1.000  C 
  C30      1.0000 0.92320  0.85460  0.95120  Biso   1.000  C 
  H42      1.0000 0.92380  0.84230  0.98910  Biso   1.000  H 
  H43      1.0000 0.86240  0.84680  0.93130  Biso   1.000  H 
  C31      1.0000 0.94450  0.92350  0.94880  Biso   1.000  C 
  H44      1.0000 0.89870  0.94600  0.96510  Biso   1.000  H 
  C32      1.0000 0.94900  0.95070  0.89910  Biso   1.000  C 
  H45      1.0000 0.89170  0.94070  0.87580  Biso   1.000  H 
  H46      1.0000 0.99610  0.92810  0.88400  Biso   1.000  H 
  C33      1.0000 0.96620  0.02020  0.88990  Biso   1.000  C 
  C34      1.0000 0.89900  0.06030  0.89510  Biso   1.000  C 
  H47      1.0000 0.84590  0.04980  0.86910  Biso   1.000  H 
  H48      1.0000 0.88460  0.05770  0.93160  Biso   1.000  H 
  H49      1.0000 0.91810  0.10220  0.88830  Biso   1.000  H 
  H50      1.0000 0.98120  0.02490  0.85330  Biso   1.000  H 
  H51      1.0000 0.01960  0.03270  0.91560  Biso   1.000  H 
  H52      1.0000 0.00260  0.93060  0.97210  Biso   1.000  H 
  O8       1.0000 0.96244  0.78054  0.88699  Biso   1.000  O 
  O9       1.0000 0.15793  0.85418  0.85843  Biso   1.000  O 
  C35      1.0000 0.10580  0.85104  0.81322  Biso   1.000  C 
  C36      1.0000 0.11090  0.90573  0.77510  Biso   1.000  C 
  H53      1.0000 0.08020  0.94110  0.78900  Biso   1.000  H 
  H54      1.0000 0.17470  0.91710  0.77710  Biso   1.000  H 
  C37      1.0000 0.07140  0.89727  0.71551  Biso   1.000  C 
  H55      1.0000 0.00620  0.88980  0.71210  Biso   1.000  H 
  H56      1.0000 0.09890  0.86090  0.70110  Biso   1.000  H 
  C38      1.0000 0.08840  0.95524  0.68206  Biso   1.000  C 
  C39      1.0000 0.04940  0.95210  0.62236  Biso   1.000  C 
  H57      1.0000 0.07580  0.91670  0.60590  Biso   1.000  H 
  C40      1.0000 0.06760  0.01160  0.59210  Biso   1.000  C 
  H58      1.0000 0.04120  0.04680  0.60810  Biso   1.000  H 
  H59      1.0000 0.04080  0.00790  0.55420  Biso   1.000  H 
  H60      1.0000 0.13230  0.01770  0.59470  Biso   1.000  H 
  H61      1.0000 0.98400  0.94540  0.61850  Biso   1.000  H 
  H62      1.0000 0.06280  0.99150  0.69790  Biso   1.000  H 
  H63      1.0000 0.15380  0.96180  0.68540  Biso   1.000  H 
  O10      1.0000 0.05093  0.80716  0.79869  Biso   1.000  O 
  O11      1.0000 0.17501  0.71281  0.96030  Biso   1.000  O 
  C41      1.0000 0.11790  0.66952  0.94699  Biso   1.000  C 
  C42      1.0000 0.12180  0.61363  0.98552  Biso   1.000  C 
  H64      1.0000 0.06050  0.60350  0.99170  Biso   1.000  H 
  H65      1.0000 0.15750  0.62470  0.02060  Biso   1.000  H 
  C43      1.0000 0.16460  0.55510  0.96230  Biso   1.000  C 
  H66      1.0000 0.12550  0.54290  0.92870  Biso   1.000  H 
  H67      1.0000 0.16340  0.52100  0.98830  Biso   1.000  H 
  C44      1.0000 0.25470  0.56050  0.95100  Biso   1.000  C 
  H68      1.0000 0.25360  0.58950  0.92060  Biso   1.000  H 
  H69      1.0000 0.29150  0.57970  0.98270  Biso   1.000  H 
  C45      1.0000 0.30270  0.50250  0.93740  Biso   1.000  C 
  H70      1.0000 0.26250  0.48090  0.90840  Biso   1.000  H 
  H71      1.0000 0.30940  0.47550  0.96940  Biso   1.000  H 
  C46      1.0000 0.39090  0.50750  0.92030  Biso   1.000  C 
  H72      1.0000 0.40740  0.46770  0.90640  Biso   1.000  H 
  H73      1.0000 0.43560  0.51930  0.95110  Biso   1.000  H 
  H74      1.0000 0.38870  0.53870  0.89210  Biso   1.000  H 
  O12      1.0000 0.05908  0.66832  0.90458  Biso   1.000  O 
  N3       1.0000 0.27765  0.83930  0.96939  Biso   1.000  N 
  C47      1.0000 0.35520  0.85823  0.95383  Biso   1.000  C 
  H75      1.0000 0.36730  0.84560  0.91960  Biso   1.000  H 
  C48      1.0000 0.41850  0.89571  0.98581  Biso   1.000  C 
  H76      1.0000 0.47130  0.90870  0.97310  Biso   1.000  H 
  C49      1.0000 0.40150  0.91346  0.03713  Biso   1.000  C 
  C50      1.0000 0.32230  0.89334  0.05437  Biso   1.000  C 
  C51      1.0000 0.26310  0.85629  0.01894  Biso   1.000  C 
  H77      1.0000 0.20980  0.84250  0.03060  Biso   1.000  H 
  H78      1.0000 0.30910  0.90430  0.08870  Biso   1.000  H 
  S3       1.0000 0.48437  0.96274  0.07589  Biso   1.000  S 
  S4       1.0000 0.43059  0.98976  0.14255  Biso   1.000  S 
  C52      1.0000 0.46740  0.93254  0.19310  Biso   1.000  C 
  C53      1.0000 0.49830  0.87322  0.18223  Biso   1.000  C 
  C54      1.0000 0.52840  0.83448  0.22599  Biso   1.000  C 
  H79      1.0000 0.54920  0.79470  0.21860  Biso   1.000  H 
  N4       1.0000 0.52964  0.85061  0.27834  Biso   1.000  N 
  C55      1.0000 0.49680  0.90671  0.28799  Biso   1.000  C 
  C56      1.0000 0.46510  0.94852  0.24675  Biso   1.000  C 
  H80      1.0000 0.44230  0.98730  0.25520  Biso   1.000  H 
  H81      1.0000 0.49500  0.91830  0.32410  Biso   1.000  H 
  H82      1.0000 0.49880  0.85990  0.14640  Biso   1.000  H 
  O13      1.0000 0.70863  0.67161  0.37066  Biso   1.000  O 
  C57      1.0000 0.71310  0.69610  0.32438  Biso   1.000  C 
  O14      1.0000 0.66586  0.74181  0.30430  Biso   1.000  O 
  C58      1.0000 0.77720  0.66636  0.29121  Biso   1.000  C 
  C59      1.0000 0.74990  0.59894  0.27590  Biso   1.000  C 
  H83      1.0000 0.68980  0.59880  0.25370  Biso   1.000  H 
  H84      1.0000 0.74630  0.57530  0.30910  Biso   1.000  H 
  C60      1.0000 0.81630  0.56716  0.24470  Biso   1.000  C 
  C61      1.0000 0.79340  0.49910  0.23060  Biso   1.000  C 
  H85      1.0000 0.73660  0.49720  0.20510  Biso   1.000  H 
  C62      1.0000 0.86810  0.46690  0.20530  Biso   1.000  C 
  H86      1.0000 0.87620  0.48830  0.17220  Biso   1.000  H 
  H87      1.0000 0.85110  0.42410  0.19700  Biso   1.000  H 
  H88      1.0000 0.92420  0.46800  0.23070  Biso   1.000  H 
  H89      1.0000 0.78460  0.47680  0.26370  Biso   1.000  H 
  H90      1.0000 0.81820  0.59010  0.21100  Biso   1.000  H 
  H91      1.0000 0.87680  0.56910  0.26640  Biso   1.000  H 
  H92      1.0000 0.77790  0.69060  0.25800  Biso   1.000  H 
  H93      1.0000 0.83840  0.66680  0.31200  Biso   1.000  H 
  O15      1.0000 0.70826  0.76539  0.45117  Biso   1.000  O 
  C63      1.0000 0.72130  0.81671  0.42879  Biso   1.000  C 
  C64      1.0000 0.79180  0.86090  0.45891  Biso   1.000  C 
  H94      1.0000 0.76350  0.90180  0.45980  Biso   1.000  H 
  H95      1.0000 0.84050  0.86510  0.43710  Biso   1.000  H 
  C65      1.0000 0.83380  0.84540  0.51510  Biso   1.000  C 
  H96      1.0000 0.78480  0.84930  0.53660  Biso   1.000  H 
  H97      1.0000 0.87510  0.88000  0.52630  Biso   1.000  H 
  C66      1.0000 0.87890  0.79510  0.53440  Biso   1.000  C 
  H98      1.0000 0.83690  0.76040  0.52500  Biso   1.000  H 
  H99      1.0000 0.92670  0.78980  0.51210  Biso   1.000  H 
  C67      1.0000 0.92330  0.78280  0.59160  Biso   1.000  C 
  C68      1.0000 0.95590  0.73420  0.61230  Biso   1.000  C 
  H100     1.0000 0.91120  0.70130  0.60590  Biso   1.000  H 
  H101     1.0000 0.97370  0.74010  0.65110  Biso   1.000  H 
  H102     1.0000 0.00850  0.72290  0.59620  Biso   1.000  H 
  H103     1.0000 0.87870  0.79550  0.61430  Biso   1.000  H 
  H104     1.0000 0.97240  0.81330  0.59860  Biso   1.000  H 
  O16      1.0000 0.68035  0.83484  0.38322  Biso   1.000  O 
