data_image0
_cell_length_a       9.9721
_cell_length_b       19.5588
_cell_length_c       12.5878
_cell_angle_alpha    90
_cell_angle_beta     110.479
_cell_angle_gamma    90

_symmetry_space_group_name_H-M    "P 1"
_symmetry_int_tables_number       1

loop_
  _symmetry_equiv_pos_as_xyz
  'x, y, z'

loop_
  _atom_site_label
  _atom_site_occupancy
  _atom_site_fract_x
  _atom_site_fract_y
  _atom_site_fract_z
  _atom_site_thermal_displace_type
  _atom_site_B_iso_or_equiv
  _atom_site_type_symbol
  Cd1      1.0000 0.24008  0.01602  0.47803  Biso   1.000  Cd
  O1       1.0000 0.34810  0.07650  0.37200  Biso   1.000  O 
  C1       1.0000 0.48000  0.07420  0.38780  Biso   1.000  C 
  O2       1.0000 0.57650  0.06090  0.48050  Biso   1.000  O 
  Cd2      1.0000 0.75992  0.98398  0.52197  Biso   1.000  Cd
  N1       1.0000 0.66570  0.91080  0.36750  Biso   1.000  N 
  C2       1.0000 0.70490  0.91200  0.28020  Biso   1.000  C 
  C3       1.0000 0.66950  0.86230  0.19660  Biso   1.000  C 
  H1       1.0000 0.69970  0.86640  0.13490  Biso   1.000  H 
  C4       1.0000 0.59270  0.80930  0.20530  Biso   1.000  C 
  C5       1.0000 0.55270  0.80400  0.29870  Biso   1.000  C 
  H2       1.0000 0.49950  0.76680  0.30780  Biso   1.000  H 
  C6       1.0000 0.59370  0.85570  0.37970  Biso   1.000  C 
  H3       1.0000 0.57000  0.85170  0.44470  Biso   1.000  H 
  H4       1.0000 0.56610  0.77590  0.14900  Biso   1.000  H 
  H5       1.0000 0.76060  0.94860  0.27300  Biso   1.000  H 
  O3       1.0000 0.65190  0.92350  0.62800  Biso   1.000  O 
  C7       1.0000 0.52000  0.92580  0.61220  Biso   1.000  C 
  O4       1.0000 0.42350  0.93910  0.51950  Biso   1.000  O 
  C8       1.0000 0.47760  0.91120  0.71360  Biso   1.000  C 
  C9       1.0000 0.35560  0.87360  0.70400  Biso   1.000  C 
  C10      1.0000 0.31530  0.86690  0.79990  Biso   1.000  C 
  H6       1.0000 0.23450  0.84160  0.79540  Biso   1.000  H 
  C11      1.0000 0.39590  0.89790  0.90120  Biso   1.000  C 
  H7       1.0000 0.36740  0.89460  0.96390  Biso   1.000  H 
  C12      1.0000 0.51670  0.93320  0.90890  Biso   1.000  C 
  H8       1.0000 0.57110  0.95310  0.97760  Biso   1.000  H 
  C13      1.0000 0.55940  0.93990  0.81710  Biso   1.000  C 
  H9       1.0000 0.64290  0.96360  0.82400  Biso   1.000  H 
  C14      1.0000 0.27400  0.83500  0.59920  Biso   1.000  C 
  C15      1.0000 0.33890  0.78200  0.56250  Biso   1.000  C 
  C16      1.0000 0.26390  0.74240  0.47010  Biso   1.000  C 
  H10      1.0000 0.31000  0.70760  0.44590  Biso   1.000  H 
  C17      1.0000 0.12100  0.75460  0.41410  Biso   1.000  C 
  H11      1.0000 0.06960  0.72780  0.35210  Biso   1.000  H 
  C18      1.0000 0.05410  0.80630  0.44970  Biso   1.000  C 
  H12      1.0000 0.95660  0.81350  0.41240  Biso   1.000  H 
  C19      1.0000 0.12890  0.84850  0.54050  Biso   1.000  C 
  C20      1.0000 0.05690  0.90910  0.56910  Biso   1.000  C 
  O5       1.0000 0.93510  0.89980  0.57700  Biso   1.000  O 
  O6       1.0000 0.12070  0.96540  0.58390  Biso   1.000  O 
  H13      1.0000 0.43530  0.77280  0.60110  Biso   1.000  H 
  O7       1.0000 0.87930  0.03460  0.41610  Biso   1.000  O 
  C21      1.0000 0.94310  0.09090  0.43090  Biso   1.000  C 
  O8       1.0000 0.06490  0.10020  0.42300  Biso   1.000  O 
  C22      1.0000 0.87110  0.15150  0.45950  Biso   1.000  C 
  C23      1.0000 0.94590  0.19370  0.55030  Biso   1.000  C 
  C24      1.0000 0.87900  0.24540  0.58590  Biso   1.000  C 
  H14      1.0000 0.93040  0.27220  0.64790  Biso   1.000  H 
  C25      1.0000 0.73610  0.25760  0.52990  Biso   1.000  C 
  H15      1.0000 0.69000  0.29240  0.55410  Biso   1.000  H 
  C26      1.0000 0.66110  0.21800  0.43750  Biso   1.000  C 
  H16      1.0000 0.56470  0.22720  0.39890  Biso   1.000  H 
  C27      1.0000 0.72600  0.16500  0.40080  Biso   1.000  C 
  C28      1.0000 0.64440  0.12640  0.29600  Biso   1.000  C 
  C29      1.0000 0.68470  0.13310  0.20010  Biso   1.000  C 
  C30      1.0000 0.60410  0.10210  0.09880  Biso   1.000  C 
  C31      1.0000 0.48330  0.06680  0.09110  Biso   1.000  C 
  H17      1.0000 0.42890  0.04690  0.02240  Biso   1.000  H 
  C32      1.0000 0.44060  0.06010  0.18290  Biso   1.000  C 
  H18      1.0000 0.35710  0.03640  0.17600  Biso   1.000  H 
  C33      1.0000 0.52240  0.08880  0.28640  Biso   1.000  C 
  H19      1.0000 0.63260  0.10540  0.03610  Biso   1.000  H 
  H20      1.0000 0.76550  0.15840  0.20460  Biso   1.000  H 
  H21      1.0000 0.04340  0.18650  0.58760  Biso   1.000  H 
  N2       1.0000 0.86060  0.04440  0.69340  Biso   1.000  N 
  C34      1.0000 0.79630  0.09720  0.71810  Biso   1.000  C 
  C35      1.0000 0.83430  0.12800  0.82360  Biso   1.000  C 
  C36      1.0000 0.94620  0.10410  0.90650  Biso   1.000  C 
  H22      1.0000 0.97340  0.12250  0.97910  Biso   1.000  H 
  C37      1.0000 0.01920  0.05280  0.88310  Biso   1.000  C 
  H23      1.0000 0.10330  0.03800  0.93860  Biso   1.000  H 
  C38      1.0000 0.97260  0.02030  0.77710  Biso   1.000  C 
  H24      1.0000 0.02060  0.98190  0.76540  Biso   1.000  H 
  H25      1.0000 0.78200  0.16470  0.83570  Biso   1.000  H 
  H26      1.0000 0.71890  0.11560  0.66000  Biso   1.000  H 
  N3       1.0000 0.33430  0.08920  0.63250  Biso   1.000  N 
  C39      1.0000 0.40630  0.14430  0.62030  Biso   1.000  C 
  H27      1.0000 0.43000  0.14830  0.55530  Biso   1.000  H 
  C40      1.0000 0.44730  0.19600  0.70130  Biso   1.000  C 
  H28      1.0000 0.50050  0.23320  0.69220  Biso   1.000  H 
  C41      1.0000 0.40730  0.19070  0.79470  Biso   1.000  C 
  H29      1.0000 0.43390  0.22410  0.85100  Biso   1.000  H 
  C42      1.0000 0.33050  0.13770  0.80340  Biso   1.000  C 
  H30      1.0000 0.30030  0.13360  0.86510  Biso   1.000  H 
  C43      1.0000 0.29510  0.08800  0.71980  Biso   1.000  C 
  H31      1.0000 0.23940  0.05140  0.72700  Biso   1.000  H 
  N4       1.0000 0.13940  0.95560  0.30660  Biso   1.000  N 
  C44      1.0000 0.20370  0.90280  0.28190  Biso   1.000  C 
  C45      1.0000 0.16570  0.87200  0.17640  Biso   1.000  C 
  H32      1.0000 0.21800  0.83530  0.16430  Biso   1.000  H 
  C46      1.0000 0.05380  0.89590  0.09350  Biso   1.000  C 
  H33      1.0000 0.02660  0.87750  0.02090  Biso   1.000  H 
  C47      1.0000 0.98080  0.94720  0.11690  Biso   1.000  C 
  H34      1.0000 0.89670  0.96200  0.06140  Biso   1.000  H 
  C48      1.0000 0.02740  0.97970  0.22290  Biso   1.000  C 
  H35      1.0000 0.97940  0.01810  0.23460  Biso   1.000  H 
  H36      1.0000 0.28110  0.88440  0.34000  Biso   1.000  H 
