data_image0
_cell_length_a       14.3041
_cell_length_b       14.4734
_cell_length_c       24.229
_cell_angle_alpha    80.296
_cell_angle_beta     85.056
_cell_angle_gamma    76.931

_symmetry_space_group_name_H-M    "P 1"
_symmetry_int_tables_number       1

loop_
  _symmetry_equiv_pos_as_xyz
  'x, y, z'

loop_
  _atom_site_label
  _atom_site_occupancy
  _atom_site_fract_x
  _atom_site_fract_y
  _atom_site_fract_z
  _atom_site_thermal_displace_type
  _atom_site_B_iso_or_equiv
  _atom_site_type_symbol
  Eu1      1.0000 0.89731  0.11586  0.49326  Biso   1.000  Eu
  Eu2      1.0000 0.10269  0.88414  0.50674  Biso   1.000  Eu
  Eu3      1.0000 0.60400  0.30762  0.52330  Biso   1.000  Eu
  Eu4      1.0000 0.39600  0.69238  0.47670  Biso   1.000  Eu
  O1       1.0000 0.94390  0.96170  0.46370  Biso   1.000  O 
  O2       1.0000 0.05610  0.03830  0.53630  Biso   1.000  O 
  O3       1.0000 0.58710  0.46540  0.53760  Biso   1.000  O 
  O4       1.0000 0.41290  0.53460  0.46240  Biso   1.000  O 
  O5       1.0000 0.75540  0.10350  0.46160  Biso   1.000  O 
  O6       1.0000 0.24460  0.89650  0.53840  Biso   1.000  O 
  O7       1.0000 0.01360  0.12290  0.41780  Biso   1.000  O 
  O8       1.0000 0.98640  0.87710  0.58220  Biso   1.000  O 
  O9       1.0000 0.52450  0.62040  0.53560  Biso   1.000  O 
  O10      1.0000 0.47550  0.37960  0.46440  Biso   1.000  O 
  O11      1.0000 0.21710  0.94520  0.32890  Biso   1.000  O 
  O12      1.0000 0.78290  0.05480  0.67110  Biso   1.000  O 
  O13      1.0000 0.22780  0.79050  0.44941  Biso   1.000  O 
  O14      1.0000 0.77220  0.20950  0.55059  Biso   1.000  O 
  O15      1.0000 0.31660  0.71060  0.38710  Biso   1.000  O 
  O16      1.0000 0.68340  0.28940  0.61290  Biso   1.000  O 
  O17      1.0000 0.71140  0.35720  0.45250  Biso   1.000  O 
  O18      1.0000 0.28860  0.64280  0.54750  Biso   1.000  O 
  O19      1.0000 0.60870  0.19630  0.46040  Biso   1.000  O 
  O20      1.0000 0.39130  0.80370  0.53960  Biso   1.000  O 
  O21      1.0000 0.78980  0.97800  0.38480  Biso   1.000  O 
  O22      1.0000 0.21020  0.02200  0.61520  Biso   1.000  O 
  O23      1.0000 0.99000  0.80510  0.47040  Biso   1.000  O 
  O24      1.0000 0.01000  0.19490  0.52960  Biso   1.000  O 
  O25      1.0000 0.78280  0.46040  0.52370  Biso   1.000  O 
  O26      1.0000 0.21720  0.53960  0.47630  Biso   1.000  O 
  C1       1.0000 0.24110  0.76610  0.40060  Biso   1.000  C 
  C2       1.0000 0.75890  0.23390  0.59940  Biso   1.000  C 
  O27      1.0000 0.13370  0.99290  0.42780  Biso   1.000  O 
  O28      1.0000 0.86630  0.00710  0.57220  Biso   1.000  O 
  O29      1.0000 0.85770  0.26960  0.43870  Biso   1.000  O 
  O30      1.0000 0.14230  0.73040  0.56130  Biso   1.000  O 
  N1       1.0000 0.46350  0.33120  0.59820  Biso   1.000  N 
  N2       1.0000 0.53650  0.66880  0.40180  Biso   1.000  N 
  N3       1.0000 0.56920  0.15390  0.58630  Biso   1.000  N 
  N4       1.0000 0.43080  0.84610  0.41370  Biso   1.000  N 
  C3       1.0000 0.50960  0.16190  0.63330  Biso   1.000  C 
  C4       1.0000 0.49040  0.83810  0.36670  Biso   1.000  C 
  C5       1.0000 0.67130  0.12880  0.37870  Biso   1.000  C 
  C6       1.0000 0.32870  0.87120  0.62130  Biso   1.000  C 
  C7       1.0000 0.80110  0.34600  0.44320  Biso   1.000  C 
  C8       1.0000 0.19890  0.65400  0.55680  Biso   1.000  C 
  C9       1.0000 0.79150  0.81010  0.51480  Biso   1.000  C 
  C10      1.0000 0.20850  0.18990  0.48520  Biso   1.000  C 
  H1       1.0000 0.83610  0.77230  0.53960  Biso   1.000  H 
  H2       1.0000 0.16390  0.22770  0.46040  Biso   1.000  H 
  C11      1.0000 0.92440  0.87890  0.46590  Biso   1.000  C 
  C12      1.0000 0.07560  0.12110  0.53410  Biso   1.000  C 
  C13      1.0000 0.33900  0.36040  0.69190  Biso   1.000  C 
  C14      1.0000 0.66100  0.63960  0.30810  Biso   1.000  C 
  H3       1.0000 0.29860  0.37130  0.72340  Biso   1.000  H 
  H4       1.0000 0.70140  0.62870  0.27660  Biso   1.000  H 
  C15      1.0000 0.89380  0.61060  0.41130  Biso   1.000  C 
  C16      1.0000 0.10620  0.38940  0.58870  Biso   1.000  C 
  H5       1.0000 0.91190  0.66950  0.40380  Biso   1.000  H 
  H6       1.0000 0.08810  0.33050  0.59620  Biso   1.000  H 
  C17      1.0000 0.45280  0.25650  0.63900  Biso   1.000  C 
  C18      1.0000 0.54720  0.74350  0.36100  Biso   1.000  C 
  C19      1.0000 0.65870  0.91710  0.43890  Biso   1.000  C 
  C20      1.0000 0.34130  0.08290  0.56110  Biso   1.000  C 
  H7       1.0000 0.61410  0.95190  0.41320  Biso   1.000  H 
  H8       1.0000 0.38590  0.04810  0.58680  Biso   1.000  H 
  C21      1.0000 0.19180  0.04520  0.31110  Biso   1.000  C 
  C22      1.0000 0.80820  0.95480  0.68890  Biso   1.000  C 
  C23      1.0000 0.12970  0.10500  0.34340  Biso   1.000  C 
  C24      1.0000 0.87030  0.89500  0.65660  Biso   1.000  C 
  C25      1.0000 0.58760  0.54680  0.54780  Biso   1.000  C 
  C26      1.0000 0.41240  0.45320  0.45220  Biso   1.000  C 
  C27      1.0000 0.83880  0.43670  0.43240  Biso   1.000  C 
  C28      1.0000 0.16120  0.56330  0.56760  Biso   1.000  C 
  C29      1.0000 0.67830  0.14450  0.43800  Biso   1.000  C 
  C30      1.0000 0.32170  0.85550  0.56200  Biso   1.000  C 
  C31      1.0000 0.82140  0.87090  0.46930  Biso   1.000  C 
  C32      1.0000 0.17860  0.12910  0.53070  Biso   1.000  C 
  C33      1.0000 0.72670  0.05120  0.35530  Biso   1.000  C 
  C34      1.0000 0.27330  0.94880  0.64470  Biso   1.000  C 
  C35      1.0000 0.14640  0.89360  0.32910  Biso   1.000  C 
  C36      1.0000 0.85360  0.10640  0.67090  Biso   1.000  C 
  C37      1.0000 0.08830  0.07020  0.40130  Biso   1.000  C 
  C38      1.0000 0.91170  0.92980  0.59870  Biso   1.000  C 
  C39      1.0000 0.16230  0.80300  0.35980  Biso   1.000  C 
  C40      1.0000 0.83770  0.19700  0.64020  Biso   1.000  C 
  C41      1.0000 0.09930  0.74390  0.35470  Biso   1.000  C 
  C42      1.0000 0.90070  0.25610  0.64530  Biso   1.000  C 
  H9       1.0000 0.10990  0.68150  0.37400  Biso   1.000  H 
  H10      1.0000 0.89010  0.31850  0.62600  Biso   1.000  H 
  C43      1.0000 0.65230  0.60920  0.62460  Biso   1.000  C 
  C44      1.0000 0.34770  0.39080  0.37540  Biso   1.000  C 
  H11      1.0000 0.58950  0.63750  0.63480  Biso   1.000  H 
  H12      1.0000 0.41050  0.36250  0.36520  Biso   1.000  H 
  C45      1.0000 0.49970  0.08380  0.67450  Biso   1.000  C 
  C46      1.0000 0.50030  0.91620  0.32550  Biso   1.000  C 
  C47      1.0000 0.88590  0.46360  0.38280  Biso   1.000  C 
  C48      1.0000 0.11410  0.53640  0.61720  Biso   1.000  C 
  H13      1.0000 0.90110  0.42160  0.35660  Biso   1.000  H 
  H14      1.0000 0.09890  0.57840  0.64340  Biso   1.000  H 
  C49      1.0000 0.60990  0.19780  0.34430  Biso   1.000  C 
  C50      1.0000 0.39010  0.80220  0.65570  Biso   1.000  C 
  H15      1.0000 0.57030  0.24860  0.35950  Biso   1.000  H 
  H16      1.0000 0.42970  0.75140  0.64050  Biso   1.000  H 
  C51      1.0000 0.82350  0.49560  0.47380  Biso   1.000  C 
  C52      1.0000 0.17650  0.50440  0.52620  Biso   1.000  C 
  C53      1.0000 0.39090  0.26760  0.68740  Biso   1.000  C 
  C54      1.0000 0.60910  0.73240  0.31260  Biso   1.000  C 
  C55      1.0000 0.76320  0.51610  0.56650  Biso   1.000  C 
  C56      1.0000 0.23680  0.48390  0.43350  Biso   1.000  C 
  C57      1.0000 0.06520  0.92850  0.29870  Biso   1.000  C 
  C58      1.0000 0.93480  0.07150  0.70130  Biso   1.000  C 
  H17      1.0000 0.05260  0.99150  0.28040  Biso   1.000  H 
  H18      1.0000 0.94740  0.00850  0.71960  Biso   1.000  H 
  C59      1.0000 0.66940  0.55660  0.58010  Biso   1.000  C 
  C60      1.0000 0.33060  0.44340  0.41990  Biso   1.000  C 
  C61      1.0000 0.66300  0.11920  0.26510  Biso   1.000  C 
  C62      1.0000 0.33700  0.88080  0.73490  Biso   1.000  C 
  H19      1.0000 0.66210  0.11720  0.22700  Biso   1.000  H 
  H20      1.0000 0.33790  0.88280  0.77300  Biso   1.000  H 
  C63      1.0000 0.83870  0.52700  0.59540  Biso   1.000  C 
  C64      1.0000 0.16130  0.47300  0.40460  Biso   1.000  C 
  H21      1.0000 0.90170  0.50010  0.58500  Biso   1.000  H 
  H22      1.0000 0.09830  0.49990  0.41500  Biso   1.000  H 
  C65      1.0000 0.41000  0.41600  0.60450  Biso   1.000  C 
  C66      1.0000 0.59000  0.58400  0.39550  Biso   1.000  C 
  H23      1.0000 0.41440  0.46710  0.57620  Biso   1.000  H 
  H24      1.0000 0.58560  0.53290  0.42380  Biso   1.000  H 
  C67      1.0000 0.61820  0.06560  0.58060  Biso   1.000  C 
  C68      1.0000 0.38180  0.93440  0.41940  Biso   1.000  C 
  H25      1.0000 0.65960  0.05790  0.54910  Biso   1.000  H 
  H26      1.0000 0.34040  0.94210  0.45090  Biso   1.000  H 
  C69      1.0000 0.55200  0.99320  0.66600  Biso   1.000  C 
  C70      1.0000 0.44800  0.00680  0.33400  Biso   1.000  C 
  H27      1.0000 0.54660  0.93970  0.69230  Biso   1.000  H 
  H28      1.0000 0.45340  0.06030  0.30770  Biso   1.000  H 
  C71      1.0000 0.34710  0.43490  0.65070  Biso   1.000  C 
  C72      1.0000 0.65290  0.56510  0.34930  Biso   1.000  C 
  H29      1.0000 0.31180  0.49670  0.65320  Biso   1.000  H 
  H30      1.0000 0.68820  0.50330  0.34680  Biso   1.000  H 
  C73      1.0000 0.69540  0.80560  0.52320  Biso   1.000  C 
  C74      1.0000 0.30460  0.19440  0.47680  Biso   1.000  C 
  H31      1.0000 0.67490  0.76710  0.55450  Biso   1.000  H 
  H32      1.0000 0.32510  0.23290  0.44550  Biso   1.000  H 
  C75      1.0000 0.75530  0.92400  0.43110  Biso   1.000  C 
  C76      1.0000 0.24470  0.07600  0.56890  Biso   1.000  C 
  C77      1.0000 0.72220  0.04750  0.29850  Biso   1.000  C 
  C78      1.0000 0.27780  0.95250  0.70150  Biso   1.000  C 
  H33      1.0000 0.75980  0.99590  0.28300  Biso   1.000  H 
  H34      1.0000 0.24020  0.00410  0.71700  Biso   1.000  H 
  C79      1.0000 0.61050  0.98330  0.61970  Biso   1.000  C 
  C80      1.0000 0.38950  0.01670  0.38030  Biso   1.000  C 
  H35      1.0000 0.64540  0.92300  0.61370  Biso   1.000  H 
  H36      1.0000 0.35460  0.07700  0.38630  Biso   1.000  H 
  C81      1.0000 0.60530  0.19380  0.28810  Biso   1.000  C 
  C82      1.0000 0.39470  0.80620  0.71190  Biso   1.000  C 
  H37      1.0000 0.56330  0.24130  0.26600  Biso   1.000  H 
  H38      1.0000 0.43670  0.75870  0.73400  Biso   1.000  H 
  C83      1.0000 0.10680  0.20140  0.32260  Biso   1.000  C 
  C84      1.0000 0.89320  0.79860  0.67740  Biso   1.000  C 
  H39      1.0000 0.06440  0.24260  0.34350  Biso   1.000  H 
  H40      1.0000 0.93560  0.75740  0.65650  Biso   1.000  H 
  C85      1.0000 0.02170  0.77750  0.32130  Biso   1.000  C 
  C86      1.0000 0.97830  0.22250  0.67870  Biso   1.000  C 
  H41      1.0000 0.98230  0.73670  0.31650  Biso   1.000  H 
  H42      1.0000 0.01770  0.26330  0.68350  Biso   1.000  H 
  C87      1.0000 0.72670  0.62010  0.65370  Biso   1.000  C 
  C88      1.0000 0.27330  0.37990  0.34630  Biso   1.000  C 
  H43      1.0000 0.71390  0.65590  0.68300  Biso   1.000  H 
  H44      1.0000 0.28610  0.34410  0.31700  Biso   1.000  H 
  C89      1.0000 0.20800  0.17740  0.24100  Biso   1.000  C 
  C90      1.0000 0.79200  0.82260  0.75900  Biso   1.000  C 
  H45      1.0000 0.23490  0.20160  0.20690  Biso   1.000  H 
  H46      1.0000 0.76510  0.79840  0.79310  Biso   1.000  H 
  C91      1.0000 0.85000  0.58350  0.46250  Biso   1.000  C 
  C92      1.0000 0.15000  0.41650  0.53750  Biso   1.000  C 
  H47      1.0000 0.83830  0.62410  0.48940  Biso   1.000  H 
  H48      1.0000 0.16170  0.37590  0.51060  Biso   1.000  H 
  C93      1.0000 0.00260  0.87000  0.29550  Biso   1.000  C 
  C94      1.0000 0.99740  0.13000  0.70450  Biso   1.000  C 
  H49      1.0000 0.94720  0.89390  0.27560  Biso   1.000  H 
  H50      1.0000 0.05280  0.10610  0.72440  Biso   1.000  H 
  C95      1.0000 0.23100  0.08050  0.26100  Biso   1.000  C 
  C96      1.0000 0.76900  0.91950  0.73900  Biso   1.000  C 
  H51      1.0000 0.27340  0.03920  0.24020  Biso   1.000  H 
  H52      1.0000 0.72660  0.96080  0.75980  Biso   1.000  H 
  C97      1.0000 0.14490  0.23840  0.27190  Biso   1.000  C 
  C98      1.0000 0.85510  0.76160  0.72810  Biso   1.000  C 
  H53      1.0000 0.12820  0.30380  0.25860  Biso   1.000  H 
  H54      1.0000 0.87180  0.69620  0.74140  Biso   1.000  H 
  C99      1.0000 0.81930  0.57820  0.63960  Biso   1.000  C 
  C100     1.0000 0.18070  0.42180  0.36040  Biso   1.000  C 
  H55      1.0000 0.86930  0.58420  0.65990  Biso   1.000  H 
  H56      1.0000 0.13070  0.41580  0.34010  Biso   1.000  H 
  C101     1.0000 0.38480  0.18680  0.72870  Biso   1.000  C 
  C102     1.0000 0.61520  0.81320  0.27130  Biso   1.000  C 
  H57      1.0000 0.34480  0.19510  0.76060  Biso   1.000  H 
  H58      1.0000 0.65520  0.80490  0.23940  Biso   1.000  H 
  C103     1.0000 0.43580  0.09850  0.72270  Biso   1.000  C 
  C104     1.0000 0.56420  0.90150  0.27730  Biso   1.000  C 
  H59      1.0000 0.42960  0.04650  0.75010  Biso   1.000  H 
  H60      1.0000 0.57040  0.95350  0.24990  Biso   1.000  H 
  C105     1.0000 0.63080  0.85790  0.48510  Biso   1.000  C 
  C106     1.0000 0.36920  0.14210  0.51490  Biso   1.000  C 
  H61      1.0000 0.56670  0.85340  0.49050  Biso   1.000  H 
  H62      1.0000 0.43330  0.14660  0.50950  Biso   1.000  H 
  C107     1.0000 0.91110  0.55050  0.37070  Biso   1.000  C 
  C108     1.0000 0.08890  0.44950  0.62930  Biso   1.000  C 
  H63      1.0000 0.93940  0.56930  0.33580  Biso   1.000  H 
  H64      1.0000 0.06060  0.43070  0.66420  Biso   1.000  H 
  Eu5      1.0000 0.63030  0.76969  0.07934  Biso   1.000  Eu
  Eu6      1.0000 0.36970  0.23031  0.92066  Biso   1.000  Eu
  Eu7      1.0000 0.09662  0.38408  0.99058  Biso   1.000  Eu
  Eu8      1.0000 0.90338  0.61592  0.00942  Biso   1.000  Eu
  O31      1.0000 0.96770  0.31770  0.96370  Biso   1.000  O 
  O32      1.0000 0.03230  0.68230  0.03630  Biso   1.000  O 
  O33      1.0000 0.72640  0.71000  0.16490  Biso   1.000  O 
  O34      1.0000 0.27360  0.29000  0.83510  Biso   1.000  O 
  O35      1.0000 0.89740  0.49410  0.08890  Biso   1.000  O 
  O36      1.0000 0.10260  0.50590  0.91110  Biso   1.000  O 
  O37      1.0000 0.84950  0.78010  0.97560  Biso   1.000  O 
  O38      1.0000 0.15050  0.21990  0.02440  Biso   1.000  O 
  O39      1.0000 0.48690  0.86930  0.03930  Biso   1.000  O 
  O40      1.0000 0.51310  0.13070  0.96070  Biso   1.000  O 
  H65      1.0000 0.45730  0.92730  0.04810  Biso   1.000  H 
  H66      1.0000 0.54270  0.07270  0.95190  Biso   1.000  H 
  H67      1.0000 0.45400  0.85490  0.01300  Biso   1.000  H 
  H68      1.0000 0.54600  0.14510  0.98700  Biso   1.000  H 
  O41      1.0000 0.01020  0.36340  0.07760  Biso   1.000  O 
  O42      1.0000 0.98980  0.63660  0.92240  Biso   1.000  O 
  O43      1.0000 0.83850  0.50290  0.20150  Biso   1.000  O 
  O44      1.0000 0.16150  0.49710  0.79850  Biso   1.000  O 
  O45      1.0000 0.80180  0.68980  0.08470  Biso   1.000  O 
  O46      1.0000 0.19820  0.31020  0.91530  Biso   1.000  O 
  O47      1.0000 0.92450  0.46970  0.97200  Biso   1.000  O 
  O48      1.0000 0.07550  0.53030  0.02800  Biso   1.000  O 
  O49      1.0000 0.61940  0.90790  0.11590  Biso   1.000  O 
  O50      1.0000 0.38060  0.09210  0.88410  Biso   1.000  O 
  O51      1.0000 0.71000  0.86050  0.00760  Biso   1.000  O 
  O52      1.0000 0.29000  0.13950  0.99240  Biso   1.000  O 
  O53      1.0000 0.72600  0.05640  0.99750  Biso   1.000  O 
  O54      1.0000 0.27400  0.94360  0.00250  Biso   1.000  O 
  O55      1.0000 0.60340  0.70710  0.99960  Biso   1.000  O 
  O56      1.0000 0.39660  0.29290  0.00040  Biso   1.000  O 
  O57      1.0000 0.74930  0.62240  0.98450  Biso   1.000  O 
  O58      1.0000 0.25070  0.37760  0.01550  Biso   1.000  O 
  O59      1.0000 0.76210  0.52030  0.89730  Biso   1.000  O 
  O60      1.0000 0.23790  0.47970  0.10270  Biso   1.000  O 
  N5       1.0000 0.60980  0.59670  0.12010  Biso   1.000  N 
  N6       1.0000 0.39020  0.40330  0.87990  Biso   1.000  N 
  C109     1.0000 0.38050  0.73730  0.25480  Biso   1.000  C 
  C110     1.0000 0.61950  0.26270  0.74520  Biso   1.000  C 
  H69      1.0000 0.34110  0.73270  0.28730  Biso   1.000  H 
  H70      1.0000 0.65890  0.26730  0.71270  Biso   1.000  H 
  N7       1.0000 0.49980  0.75400  0.15890  Biso   1.000  N 
  N8       1.0000 0.50020  0.24600  0.84110  Biso   1.000  N 
  C111     1.0000 0.64820  0.66950  0.90830  Biso   1.000  C 
  C112     1.0000 0.35180  0.33050  0.09170  Biso   1.000  C 
  C113     1.0000 0.73170  0.45090  0.93550  Biso   1.000  C 
  C114     1.0000 0.26830  0.54910  0.06450  Biso   1.000  C 
  O61      1.0000 0.57480  0.06200  0.08390  Biso   1.000  O 
  O62      1.0000 0.42520  0.93800  0.91610  Biso   1.000  O 
  C115     1.0000 0.83540  0.35120  0.25330  Biso   1.000  C 
  C116     1.0000 0.16460  0.64880  0.74670  Biso   1.000  C 
  H71      1.0000 0.80460  0.38250  0.28250  Biso   1.000  H 
  H72      1.0000 0.19540  0.61750  0.71750  Biso   1.000  H 
  C117     1.0000 0.55780  0.58440  0.16890  Biso   1.000  C 
  C118     1.0000 0.44220  0.41560  0.83110  Biso   1.000  C 
  C119     1.0000 0.94170  0.40960  0.10530  Biso   1.000  C 
  C120     1.0000 0.05830  0.59040  0.89470  Biso   1.000  C 
  C121     1.0000 0.90390  0.39110  0.96650  Biso   1.000  C 
  C122     1.0000 0.09610  0.60890  0.03350  Biso   1.000  C 
  C123     1.0000 0.58130  0.74640  0.88410  Biso   1.000  C 
  C124     1.0000 0.41870  0.25360  0.11590  Biso   1.000  C 
  H73      1.0000 0.54750  0.79150  0.90580  Biso   1.000  H 
  H74      1.0000 0.45250  0.20850  0.09420  Biso   1.000  H 
  C125     1.0000 0.67630  0.61010  0.82010  Biso   1.000  C 
  C126     1.0000 0.32370  0.38990  0.17990  Biso   1.000  C 
  H75      1.0000 0.70680  0.56370  0.79850  Biso   1.000  H 
  H76      1.0000 0.29320  0.43630  0.20150  Biso   1.000  H 
  C127     1.0000 0.63580  0.44100  0.94110  Biso   1.000  C 
  C128     1.0000 0.36420  0.55900  0.05890  Biso   1.000  C 
  H77      1.0000 0.58950  0.48480  0.91990  Biso   1.000  H 
  H78      1.0000 0.41050  0.51520  0.08010  Biso   1.000  H 
  C129     1.0000 0.77400  0.30710  0.00260  Biso   1.000  C 
  C130     1.0000 0.22600  0.69290  0.99740  Biso   1.000  C 
  H79      1.0000 0.82030  0.26060  0.02230  Biso   1.000  H 
  H80      1.0000 0.17970  0.73940  0.97770  Biso   1.000  H 
  C131     1.0000 0.82690  0.09370  0.85470  Biso   1.000  C 
  C132     1.0000 0.17310  0.90630  0.14530  Biso   1.000  C 
  H81      1.0000 0.83690  0.14450  0.82750  Biso   1.000  H 
  H82      1.0000 0.16310  0.85550  0.17250  Biso   1.000  H 
  C133     1.0000 0.93020  0.01310  0.08710  Biso   1.000  C 
  C134     1.0000 0.06980  0.98690  0.91290  Biso   1.000  C 
  H83      1.0000 0.99400  0.01840  0.08440  Biso   1.000  H 
  H84      1.0000 0.00600  0.98160  0.91560  Biso   1.000  H 
  C135     1.0000 0.67760  0.30000  0.00810  Biso   1.000  C 
  C136     1.0000 0.32240  0.70000  0.99190  Biso   1.000  C 
  H85      1.0000 0.65920  0.24960  0.03250  Biso   1.000  H 
  H86      1.0000 0.34080  0.75040  0.96750  Biso   1.000  H 
  C137     1.0000 0.61040  0.36690  0.97770  Biso   1.000  C 
  C138     1.0000 0.38960  0.63310  0.02230  Biso   1.000  C 
  H87      1.0000 0.54640  0.36210  0.98200  Biso   1.000  H 
  H88      1.0000 0.45360  0.63790  0.01800  Biso   1.000  H 
  C139     1.0000 0.87730  0.03890  0.04090  Biso   1.000  C 
  C140     1.0000 0.12270  0.96110  0.95910  Biso   1.000  C 
  H89      1.0000 0.90530  0.06240  0.00680  Biso   1.000  H 
  H90      1.0000 0.09470  0.93760  0.99320  Biso   1.000  H 
  C141     1.0000 0.91140  0.35800  0.16050  Biso   1.000  C 
  C142     1.0000 0.08860  0.64200  0.83950  Biso   1.000  C 
  C143     1.0000 0.92830  0.25810  0.16750  Biso   1.000  C 
  C144     1.0000 0.07170  0.74190  0.83250  Biso   1.000  C 
  H91      1.0000 0.96040  0.22570  0.13900  Biso   1.000  H 
  H92      1.0000 0.03960  0.77430  0.86100  Biso   1.000  H 
  C145     1.0000 0.91210  0.55270  0.19680  Biso   1.000  C 
  C146     1.0000 0.08790  0.44730  0.80320  Biso   1.000  C 
  C147     1.0000 0.50370  0.48570  0.25190  Biso   1.000  C 
  C148     1.0000 0.49630  0.51430  0.74810  Biso   1.000  C 
  H93      1.0000 0.50810  0.42590  0.27400  Biso   1.000  H 
  H94      1.0000 0.49190  0.57410  0.72600  Biso   1.000  H 
  C149     1.0000 0.55890  0.49300  0.19990  Biso   1.000  C 
  C150     1.0000 0.44110  0.50700  0.80010  Biso   1.000  C 
  C151     1.0000 0.80240  0.94150  0.93680  Biso   1.000  C 
  C152     1.0000 0.19760  0.05850  0.06320  Biso   1.000  C 
  C153     1.0000 0.78280  0.03080  0.04370  Biso   1.000  C 
  C154     1.0000 0.21720  0.96920  0.95630  Biso   1.000  C 
  C155     1.0000 0.86410  0.40380  0.20450  Biso   1.000  C 
  C156     1.0000 0.13590  0.59620  0.79550  Biso   1.000  C 
  C157     1.0000 0.85170  0.25330  0.25900  Biso   1.000  C 
  C158     1.0000 0.14830  0.74670  0.74100  Biso   1.000  C 
  H95      1.0000 0.83150  0.21830  0.29190  Biso   1.000  H 
  H96      1.0000 0.16850  0.78170  0.70810  Biso   1.000  H 
  C159     1.0000 0.96500  0.69760  0.16090  Biso   1.000  C 
  C160     1.0000 0.03500  0.30240  0.83910  Biso   1.000  C 
  H97      1.0000 0.95500  0.75820  0.13940  Biso   1.000  H 
  H98      1.0000 0.04500  0.24180  0.86060  Biso   1.000  H 
  C161     1.0000 0.74020  0.99840  0.09410  Biso   1.000  C 
  C162     1.0000 0.25980  0.00160  0.90590  Biso   1.000  C 
  C163     1.0000 0.69510  0.59900  0.87620  Biso   1.000  C 
  C164     1.0000 0.30490  0.40100  0.12380  Biso   1.000  C 
  C165     1.0000 0.89370  0.64430  0.16630  Biso   1.000  C 
  C166     1.0000 0.10630  0.35570  0.83370  Biso   1.000  C 
  C167     1.0000 0.78610  0.85490  0.97660  Biso   1.000  C 
  C168     1.0000 0.21390  0.14510  0.02340  Biso   1.000  C 
  C169     1.0000 0.49830  0.66640  0.18900  Biso   1.000  C 
  C170     1.0000 0.50170  0.33360  0.81100  Biso   1.000  C 
  C171     1.0000 0.80240  0.68200  0.13860  Biso   1.000  C 
  C172     1.0000 0.19760  0.31800  0.86140  Biso   1.000  C 
  C173     1.0000 0.99830  0.51310  0.22310  Biso   1.000  C 
  C174     1.0000 0.00170  0.48690  0.77690  Biso   1.000  C 
  H99      1.0000 0.00950  0.45140  0.24340  Biso   1.000  H 
  H100     1.0000 0.99050  0.54860  0.75660  Biso   1.000  H 
  C175     1.0000 0.56340  0.75730  0.82740  Biso   1.000  C 
  C176     1.0000 0.43660  0.24270  0.17260  Biso   1.000  C 
  H101     1.0000 0.51870  0.80970  0.81100  Biso   1.000  H 
  H102     1.0000 0.48130  0.19030  0.18900  Biso   1.000  H 
  C177     1.0000 0.44150  0.83040  0.17570  Biso   1.000  C 
  C178     1.0000 0.55850  0.16960  0.82430  Biso   1.000  C 
  H103     1.0000 0.44180  0.89070  0.15520  Biso   1.000  H 
  H104     1.0000 0.55820  0.10930  0.84480  Biso   1.000  H 
  C179     1.0000 0.05040  0.66070  0.18730  Biso   1.000  C 
  C180     1.0000 0.94960  0.33930  0.81270  Biso   1.000  C 
  H105     1.0000 0.09680  0.69740  0.18450  Biso   1.000  H 
  H106     1.0000 0.90320  0.30260  0.81550  Biso   1.000  H 
  C181     1.0000 0.79960  0.38460  0.96740  Biso   1.000  C 
  C182     1.0000 0.20040  0.61540  0.03260  Biso   1.000  C 
  C183     1.0000 0.89000  0.97940  0.13750  Biso   1.000  C 
  C184     1.0000 0.11000  0.02060  0.86250  Biso   1.000  C 
  H107     1.0000 0.92620  0.96230  0.16920  Biso   1.000  H 
  H108     1.0000 0.07380  0.03770  0.83080  Biso   1.000  H 
  C185     1.0000 0.61630  0.41490  0.17770  Biso   1.000  C 
  C186     1.0000 0.38370  0.58510  0.82230  Biso   1.000  C 
  H109     1.0000 0.61900  0.35320  0.19710  Biso   1.000  H 
  H110     1.0000 0.38100  0.64680  0.80290  Biso   1.000  H 
  C187     1.0000 0.66660  0.42700  0.13000  Biso   1.000  C 
  C188     1.0000 0.33340  0.57300  0.87000  Biso   1.000  C 
  H111     1.0000 0.70500  0.37450  0.11580  Biso   1.000  H 
  H112     1.0000 0.29500  0.62550  0.88420  Biso   1.000  H 
  C189     1.0000 0.66850  0.66590  0.96880  Biso   1.000  C 
  C190     1.0000 0.33150  0.33410  0.03120  Biso   1.000  C 
  C191     1.0000 0.44630  0.56180  0.26970  Biso   1.000  C 
  C192     1.0000 0.55370  0.43820  0.73030  Biso   1.000  C 
  H113     1.0000 0.40930  0.55390  0.30290  Biso   1.000  H 
  H114     1.0000 0.59070  0.44610  0.69710  Biso   1.000  H 
  C193     1.0000 0.37930  0.82290  0.22360  Biso   1.000  C 
  C194     1.0000 0.62070  0.17710  0.77640  Biso   1.000  C 
  H115     1.0000 0.33730  0.87740  0.23350  Biso   1.000  H 
  H116     1.0000 0.66270  0.12260  0.76650  Biso   1.000  H 
  C195     1.0000 0.85540  0.00280  0.84410  Biso   1.000  C 
  C196     1.0000 0.14460  0.99720  0.15590  Biso   1.000  C 
  H117     1.0000 0.88290  0.99140  0.80910  Biso   1.000  H 
  H118     1.0000 0.11710  0.00860  0.19090  Biso   1.000  H 
  C197     1.0000 0.77110  0.03480  0.94670  Biso   1.000  C 
  C198     1.0000 0.22890  0.96520  0.05330  Biso   1.000  C 
  C199     1.0000 0.44070  0.65450  0.23880  Biso   1.000  C 
  C200     1.0000 0.55930  0.34550  0.76120  Biso   1.000  C 
  C201     1.0000 0.84400  0.92600  0.88500  Biso   1.000  C 
  C202     1.0000 0.15600  0.07400  0.11500  Biso   1.000  C 
  H119     1.0000 0.86480  0.86370  0.87720  Biso   1.000  H 
  H120     1.0000 0.13520  0.13630  0.12280  Biso   1.000  H 
  C203     1.0000 0.78290  0.11130  0.90570  Biso   1.000  C 
  C204     1.0000 0.21710  0.88870  0.09430  Biso   1.000  C 
  H121     1.0000 0.76130  0.17410  0.91270  Biso   1.000  H 
  H122     1.0000 0.23870  0.82590  0.08730  Biso   1.000  H 
  C205     1.0000 0.06690  0.56860  0.21790  Biso   1.000  C 
  C206     1.0000 0.93310  0.43140  0.78210  Biso   1.000  C 
  H123     1.0000 0.12480  0.54390  0.23520  Biso   1.000  H 
  H124     1.0000 0.87520  0.45610  0.76480  Biso   1.000  H 
  C207     1.0000 0.63830  0.98910  0.09790  Biso   1.000  C 
  C208     1.0000 0.36170  0.01090  0.90210  Biso   1.000  C 
  C209     1.0000 0.66150  0.51940  0.10110  Biso   1.000  C 
  C210     1.0000 0.33850  0.48060  0.89890  Biso   1.000  C 
  H125     1.0000 0.69590  0.52730  0.06690  Biso   1.000  H 
  H126     1.0000 0.30410  0.47270  0.93310  Biso   1.000  H 
  C211     1.0000 0.89770  0.20690  0.21640  Biso   1.000  C 
  C212     1.0000 0.10230  0.79310  0.78360  Biso   1.000  C 
  H127     1.0000 0.90850  0.14030  0.22040  Biso   1.000  H 
  H128     1.0000 0.09150  0.85970  0.77960  Biso   1.000  H 
  C213     1.0000 0.79420  0.97080  0.14110  Biso   1.000  C 
  C214     1.0000 0.20580  0.02920  0.85890  Biso   1.000  C 
  H129     1.0000 0.76680  0.94660  0.17510  Biso   1.000  H 
  H130     1.0000 0.23320  0.05340  0.82490  Biso   1.000  H 
  C215     1.0000 0.61230  0.69030  0.79660  Biso   1.000  C 
  C216     1.0000 0.38770  0.30970  0.20340  Biso   1.000  C 
  H131     1.0000 0.60240  0.69860  0.75840  Biso   1.000  H 
  H132     1.0000 0.39760  0.30140  0.24160  Biso   1.000  H 
