data_image0
_cell_length_a       23.6461
_cell_length_b       7.1497
_cell_length_c       25.1158
_cell_angle_alpha    90
_cell_angle_beta     90.302
_cell_angle_gamma    90

_symmetry_space_group_name_H-M    "P 1"
_symmetry_int_tables_number       1

loop_
  _symmetry_equiv_pos_as_xyz
  'x, y, z'

loop_
  _atom_site_label
  _atom_site_occupancy
  _atom_site_fract_x
  _atom_site_fract_y
  _atom_site_fract_z
  _atom_site_thermal_displace_type
  _atom_site_B_iso_or_equiv
  _atom_site_type_symbol
  Pb1      1.0000 0.94963  0.35203  0.06721  Biso   1.000  Pb
  O1       1.0000 0.87010  0.24360  0.13085  Biso   1.000  O 
  C1       1.0000 0.90400  0.12960  0.15090  Biso   1.000  C 
  C2       1.0000 0.89010  0.04670  0.20400  Biso   1.000  C 
  C3       1.0000 0.83670  0.07860  0.22600  Biso   1.000  C 
  H1       1.0000 0.80878  0.13773  0.20592  Biso   1.000  H 
  C4       1.0000 0.82540  0.02150  0.27800  Biso   1.000  C 
  H2       1.0000 0.78978  0.04295  0.29216  Biso   1.000  H 
  C5       1.0000 0.86630  0.93310  0.30900  Biso   1.000  C 
  C6       1.0000 0.85500  0.88320  0.36560  Biso   1.000  C 
  C7       1.0000 0.80010  0.85740  0.38380  Biso   1.000  C 
  H3       1.0000 0.77023  0.87010  0.35989  Biso   1.000  H 
  C8       1.0000 0.78830  0.81290  0.43670  Biso   1.000  C 
  C9       1.0000 0.72860  0.79120  0.45530  Biso   1.000  C 
  C10      1.0000 0.68420  0.75920  0.41940  Biso   1.000  C 
  C11      1.0000 0.62890  0.74720  0.43660  Biso   1.000  C 
  H4       1.0000 0.59983  0.72962  0.41205  Biso   1.000  H 
  C12      1.0000 0.61670  0.76150  0.49130  Biso   1.000  C 
  C13      1.0000 0.55700  0.74690  0.51020  Biso   1.000  C 
  O2       1.0000 0.54577  0.78450  0.55808  Biso   1.000  O 
  Pb2      1.0000 0.44963  0.64797  0.56721  Biso   1.000  Pb
  O3       1.0000 0.39230  0.77200  0.48810  Biso   1.000  O 
  C14      1.0000 0.35220  0.73780  0.45660  Biso   1.000  C 
  O4       1.0000 0.36086  0.73190  0.40750  Biso   1.000  O 
  Pb3      1.0000 0.45385  0.86227  0.39883  Biso   1.000  Pb
  O5       1.0000 0.44520  0.69230  0.31820  Biso   1.000  O 
  C15      1.0000 0.48980  0.59330  0.31500  Biso   1.000  C 
  C16      1.0000 0.50590  0.53040  0.26000  Biso   1.000  C 
  C17      1.0000 0.46920  0.55990  0.21740  Biso   1.000  C 
  C18      1.0000 0.48480  0.51230  0.16620  Biso   1.000  C 
  H5       1.0000 0.45996  0.53509  0.13813  Biso   1.000  H 
  C19      1.0000 0.53730  0.43060  0.15600  Biso   1.000  C 
  C20      1.0000 0.55190  0.37390  0.10150  Biso   1.000  C 
  C21      1.0000 0.50960  0.31860  0.06630  Biso   1.000  C 
  H6       1.0000 0.47227  0.31560  0.07767  Biso   1.000  H 
  C22      1.0000 0.52250  0.26750  0.01410  Biso   1.000  C 
  N1       1.0000 0.48090  0.21970  0.97510  Biso   1.000  N 
  N2       1.0000 0.43120  0.22290  0.99314  Biso   1.000  N 
  C23      1.0000 0.38900  0.18690  0.95380  Biso   1.000  C 
  C24      1.0000 0.39980  0.13780  0.90090  Biso   1.000  C 
  H7       1.0000 0.43672  0.11946  0.88954  Biso   1.000  H 
  C25      1.0000 0.35500  0.11680  0.86560  Biso   1.000  C 
  C26      1.0000 0.30010  0.14260  0.88380  Biso   1.000  C 
  H8       1.0000 0.27023  0.12990  0.85989  Biso   1.000  H 
  C27      1.0000 0.28830  0.18710  0.93670  Biso   1.000  C 
  C28      1.0000 0.33360  0.20940  0.97170  Biso   1.000  C 
  H9       1.0000 0.32698  0.23946  0.00714  Biso   1.000  H 
  C29      1.0000 0.22860  0.20880  0.95530  Biso   1.000  C 
  C30      1.0000 0.18420  0.24080  0.91940  Biso   1.000  C 
  C31      1.0000 0.12890  0.25280  0.93660  Biso   1.000  C 
  C32      1.0000 0.11670  0.23850  0.99130  Biso   1.000  C 
  C33      1.0000 0.16050  0.20820  0.02710  Biso   1.000  C 
  H10      1.0000 0.15292  0.19936  0.06329  Biso   1.000  H 
  C34      1.0000 0.21560  0.19110  0.00910  Biso   1.000  C 
  H11      1.0000 0.24448  0.16727  0.03351  Biso   1.000  H 
  C35      1.0000 0.05700  0.25310  0.01020  Biso   1.000  C 
  O6       1.0000 0.01925  0.30630  0.97814  Biso   1.000  O 
  O7       1.0000 0.04577  0.21550  0.05808  Biso   1.000  O 
  H12      1.0000 0.09983  0.27038  0.91205  Biso   1.000  H 
  H13      1.0000 0.19202  0.25422  0.88340  Biso   1.000  H 
  C36      1.0000 0.36630  0.06690  0.80900  Biso   1.000  C 
  C37      1.0000 0.41850  0.09980  0.78570  Biso   1.000  C 
  H14      1.0000 0.44606  0.16301  0.80507  Biso   1.000  H 
  C38      1.0000 0.43060  0.04210  0.73480  Biso   1.000  C 
  H15      1.0000 0.46647  0.06296  0.72098  Biso   1.000  H 
  C39      1.0000 0.39010  0.95330  0.70400  Biso   1.000  C 
  C40      1.0000 0.33670  0.92140  0.72600  Biso   1.000  C 
  H16      1.0000 0.30878  0.86227  0.70592  Biso   1.000  H 
  C41      1.0000 0.32540  0.97850  0.77800  Biso   1.000  C 
  H17      1.0000 0.28978  0.95705  0.79216  Biso   1.000  H 
  C42      1.0000 0.40400  0.87040  0.65090  Biso   1.000  C 
  O8       1.0000 0.45138  0.91080  0.62982  Biso   1.000  O 
  O9       1.0000 0.37010  0.75640  0.63085  Biso   1.000  O 
  C43      1.0000 0.57820  0.26870  0.99740  Biso   1.000  C 
  H18      1.0000 0.58648  0.23461  0.96253  Biso   1.000  H 
  C44      1.0000 0.62200  0.31980  0.03140  Biso   1.000  C 
  C45      1.0000 0.60830  0.37310  0.08310  Biso   1.000  C 
  H19      1.0000 0.63707  0.40934  0.10628  Biso   1.000  H 
  C46      1.0000 0.68170  0.31770  0.01230  Biso   1.000  C 
  C47      1.0000 0.72630  0.28880  0.04800  Biso   1.000  C 
  H20      1.0000 0.71899  0.27752  0.08418  Biso   1.000  H 
  C48      1.0000 0.78150  0.27660  0.02980  Biso   1.000  C 
  H21      1.0000 0.81086  0.25745  0.05397  Biso   1.000  H 
  C49      1.0000 0.79350  0.29270  0.97600  Biso   1.000  C 
  C50      1.0000 0.74930  0.32790  0.94030  Biso   1.000  C 
  C51      1.0000 0.69420  0.34100  0.95850  Biso   1.000  C 
  H22      1.0000 0.66510  0.36579  0.93451  Biso   1.000  H 
  H23      1.0000 0.75684  0.34249  0.90420  Biso   1.000  H 
  C52      1.0000 0.85220  0.26220  0.95660  Biso   1.000  C 
  O10      1.0000 0.89230  0.22800  0.98810  Biso   1.000  O 
  O11      1.0000 0.86086  0.26810  0.90750  Biso   1.000  O 
  Pb4      1.0000 0.95385  0.13773  0.89883  Biso   1.000  Pb
  O12      1.0000 0.94520  0.30770  0.81820  Biso   1.000  O 
  C53      1.0000 0.98980  0.40670  0.81500  Biso   1.000  C 
  O13      1.0000 0.02050  0.44260  0.85448  Biso   1.000  O 
  Pb5      1.0000 0.05037  0.64797  0.93279  Biso   1.000  Pb
  O14      1.0000 0.04862  0.91080  0.87018  Biso   1.000  O 
  C54      1.0000 0.09600  0.87040  0.84910  Biso   1.000  C 
  C55      1.0000 0.10990  0.95330  0.79600  Biso   1.000  C 
  C56      1.0000 0.16330  0.92140  0.77400  Biso   1.000  C 
  C57      1.0000 0.17460  0.97850  0.72200  Biso   1.000  C 
  H24      1.0000 0.21022  0.95705  0.70784  Biso   1.000  H 
  C58      1.0000 0.13370  0.06690  0.69100  Biso   1.000  C 
  C59      1.0000 0.14500  0.11680  0.63440  Biso   1.000  C 
  C60      1.0000 0.10020  0.13780  0.59910  Biso   1.000  C 
  H25      1.0000 0.06328  0.11946  0.61046  Biso   1.000  H 
  C61      1.0000 0.11100  0.18690  0.54620  Biso   1.000  C 
  N3       1.0000 0.06880  0.22290  0.50686  Biso   1.000  N 
  N4       1.0000 0.01910  0.21970  0.52490  Biso   1.000  N 
  C62      1.0000 0.97750  0.26750  0.48590  Biso   1.000  C 
  C63      1.0000 0.92180  0.26870  0.50260  Biso   1.000  C 
  C64      1.0000 0.87800  0.31980  0.46860  Biso   1.000  C 
  C65      1.0000 0.81830  0.31770  0.48770  Biso   1.000  C 
  C66      1.0000 0.77370  0.28880  0.45200  Biso   1.000  C 
  H26      1.0000 0.78101  0.27752  0.41583  Biso   1.000  H 
  C67      1.0000 0.71850  0.27660  0.47020  Biso   1.000  C 
  H27      1.0000 0.68914  0.25745  0.44603  Biso   1.000  H 
  C68      1.0000 0.70650  0.29270  0.52400  Biso   1.000  C 
  C69      1.0000 0.64780  0.26220  0.54340  Biso   1.000  C 
  O15      1.0000 0.60770  0.22800  0.51190  Biso   1.000  O 
  Pb6      1.0000 0.55037  0.35203  0.43279  Biso   1.000  Pb
  O16      1.0000 0.45423  0.21550  0.44192  Biso   1.000  O 
  C70      1.0000 0.44300  0.25310  0.48980  Biso   1.000  C 
  O17      1.0000 0.48075  0.30630  0.52186  Biso   1.000  O 
  C71      1.0000 0.38330  0.23850  0.50870  Biso   1.000  C 
  C72      1.0000 0.33950  0.20820  0.47290  Biso   1.000  C 
  C73      1.0000 0.28440  0.19110  0.49090  Biso   1.000  C 
  H28      1.0000 0.25553  0.16727  0.46649  Biso   1.000  H 
  C74      1.0000 0.27140  0.20880  0.54470  Biso   1.000  C 
  C75      1.0000 0.31580  0.24080  0.58060  Biso   1.000  C 
  C76      1.0000 0.37110  0.25280  0.56340  Biso   1.000  C 
  H29      1.0000 0.40017  0.27038  0.58795  Biso   1.000  H 
  H30      1.0000 0.30798  0.25422  0.61660  Biso   1.000  H 
  C77      1.0000 0.21170  0.18710  0.56330  Biso   1.000  C 
  C78      1.0000 0.16640  0.20940  0.52830  Biso   1.000  C 
  H31      1.0000 0.17302  0.23946  0.49286  Biso   1.000  H 
  C79      1.0000 0.19990  0.14260  0.61620  Biso   1.000  C 
  H32      1.0000 0.22977  0.12990  0.64011  Biso   1.000  H 
  H33      1.0000 0.34708  0.19936  0.43671  Biso   1.000  H 
  O18      1.0000 0.54862  0.08920  0.37018  Biso   1.000  O 
  C80      1.0000 0.59600  0.12960  0.34910  Biso   1.000  C 
  C81      1.0000 0.60990  0.04670  0.29600  Biso   1.000  C 
  C82      1.0000 0.66330  0.07860  0.27400  Biso   1.000  C 
  C83      1.0000 0.67460  0.02150  0.22200  Biso   1.000  C 
  H34      1.0000 0.71022  0.04295  0.20784  Biso   1.000  H 
  C84      1.0000 0.63370  0.93310  0.19100  Biso   1.000  C 
  C85      1.0000 0.58150  0.90020  0.21430  Biso   1.000  C 
  H35      1.0000 0.55394  0.83699  0.19493  Biso   1.000  H 
  C86      1.0000 0.56940  0.95790  0.26520  Biso   1.000  C 
  H36      1.0000 0.53353  0.93704  0.27902  Biso   1.000  H 
  C87      1.0000 0.64500  0.88320  0.13440  Biso   1.000  C 
  C88      1.0000 0.60020  0.86220  0.09910  Biso   1.000  C 
  H37      1.0000 0.56328  0.88054  0.11046  Biso   1.000  H 
  C89      1.0000 0.61100  0.81310  0.04620  Biso   1.000  C 
  N5       1.0000 0.56880  0.77710  0.00686  Biso   1.000  N 
  N6       1.0000 0.51910  0.78030  0.02490  Biso   1.000  N 
  C90      1.0000 0.47750  0.73250  0.98590  Biso   1.000  C 
  C91      1.0000 0.49040  0.68140  0.93370  Biso   1.000  C 
  H38      1.0000 0.52773  0.68440  0.92233  Biso   1.000  H 
  C92      1.0000 0.44810  0.62610  0.89850  Biso   1.000  C 
  C93      1.0000 0.39170  0.62690  0.91690  Biso   1.000  C 
  H39      1.0000 0.36293  0.59066  0.89372  Biso   1.000  H 
  C94      1.0000 0.37800  0.68020  0.96860  Biso   1.000  C 
  C95      1.0000 0.31830  0.68230  0.98770  Biso   1.000  C 
  C96      1.0000 0.27370  0.71120  0.95200  Biso   1.000  C 
  H40      1.0000 0.28101  0.72248  0.91583  Biso   1.000  H 
  C97      1.0000 0.21850  0.72340  0.97020  Biso   1.000  C 
  H41      1.0000 0.18914  0.74255  0.94603  Biso   1.000  H 
  C98      1.0000 0.20650  0.70730  0.02400  Biso   1.000  C 
  C99      1.0000 0.14780  0.73780  0.04340  Biso   1.000  C 
  O19      1.0000 0.10770  0.77200  0.01190  Biso   1.000  O 
  O20      1.0000 0.13914  0.73190  0.09250  Biso   1.000  O 
  Pb7      1.0000 0.04615  0.86227  0.10117  Biso   1.000  Pb
  O21      1.0000 0.05480  0.69230  0.18180  Biso   1.000  O 
  C100     1.0000 0.01020  0.59330  0.18500  Biso   1.000  C 
  C101     1.0000 0.99410  0.53040  0.24000  Biso   1.000  C 
  C102     1.0000 0.94120  0.45240  0.25000  Biso   1.000  C 
  H42      1.0000 0.91610  0.43231  0.22188  Biso   1.000  H 
  C103     1.0000 0.92550  0.40470  0.30110  Biso   1.000  C 
  H43      1.0000 0.88977  0.35469  0.30707  Biso   1.000  H 
  C104     1.0000 0.96270  0.43060  0.34400  Biso   1.000  C 
  C105     1.0000 0.94810  0.37390  0.39850  Biso   1.000  C 
  C106     1.0000 0.99040  0.31860  0.43370  Biso   1.000  C 
  H44      1.0000 0.02773  0.31560  0.42233  Biso   1.000  H 
  C107     1.0000 0.89170  0.37310  0.41690  Biso   1.000  C 
  H45      1.0000 0.86293  0.40934  0.39372  Biso   1.000  H 
  C108     1.0000 0.01520  0.51230  0.33380  Biso   1.000  C 
  H46      1.0000 0.04004  0.53509  0.36187  Biso   1.000  H 
  C109     1.0000 0.03080  0.55990  0.28260  Biso   1.000  C 
  H47      1.0000 0.06619  0.61225  0.27660  Biso   1.000  H 
  O22      1.0000 0.97950  0.55740  0.14552  Biso   1.000  O 
  O23      1.0000 0.10370  0.05540  0.16130  Biso   1.000  O 
  C110     1.0000 0.09260  0.20000  0.18000  Biso   1.000  C 
  H48      1.0000 0.12009  0.29121  0.16918  Biso   1.000  H 
  H49      1.0000 0.05574  0.23848  0.16817  Biso   1.000  H 
  H50      1.0000 0.09293  0.19002  0.21816  Biso   1.000  H 
  C111     1.0000 0.25070  0.67210  0.05970  Biso   1.000  C 
  H51      1.0000 0.24316  0.65751  0.09580  Biso   1.000  H 
  C112     1.0000 0.30580  0.65900  0.04150  Biso   1.000  C 
  H52      1.0000 0.33490  0.63421  0.06549  Biso   1.000  H 
  C113     1.0000 0.42180  0.73130  0.00260  Biso   1.000  C 
  H53      1.0000 0.41352  0.76539  0.03747  Biso   1.000  H 
  C114     1.0000 0.46270  0.56940  0.84400  Biso   1.000  C 
  C115     1.0000 0.42550  0.59530  0.80110  Biso   1.000  C 
  H54      1.0000 0.38977  0.64531  0.80707  Biso   1.000  H 
  C116     1.0000 0.44120  0.54760  0.75000  Biso   1.000  C 
  H55      1.0000 0.41610  0.56769  0.72188  Biso   1.000  H 
  C117     1.0000 0.49410  0.46960  0.74000  Biso   1.000  C 
  C118     1.0000 0.53080  0.44010  0.78260  Biso   1.000  C 
  C119     1.0000 0.51520  0.48770  0.83380  Biso   1.000  C 
  H56      1.0000 0.54004  0.46491  0.86187  Biso   1.000  H 
  H57      1.0000 0.56619  0.38775  0.77660  Biso   1.000  H 
  C120     1.0000 0.51020  0.40670  0.68500  Biso   1.000  C 
  O24      1.0000 0.55480  0.30770  0.68180  Biso   1.000  O 
  Pb8      1.0000 0.54615  0.13773  0.60117  Biso   1.000  Pb
  O25      1.0000 0.63914  0.26810  0.59250  Biso   1.000  O 
  O26      1.0000 0.60370  0.94460  0.66130  Biso   1.000  O 
  C121     1.0000 0.59260  0.80000  0.68000  Biso   1.000  C 
  H58      1.0000 0.62009  0.70879  0.66918  Biso   1.000  H 
  H59      1.0000 0.55574  0.76152  0.66817  Biso   1.000  H 
  H60      1.0000 0.59293  0.80998  0.71816  Biso   1.000  H 
  O27      1.0000 0.47950  0.44260  0.64552  Biso   1.000  O 
  C122     1.0000 0.66640  0.79060  0.02830  Biso   1.000  C 
  H61      1.0000 0.67302  0.76054  0.99286  Biso   1.000  H 
  C123     1.0000 0.71170  0.81290  0.06330  Biso   1.000  C 
  C124     1.0000 0.77140  0.79120  0.04470  Biso   1.000  C 
  C125     1.0000 0.81580  0.75920  0.08060  Biso   1.000  C 
  H62      1.0000 0.80798  0.74578  0.11660  Biso   1.000  H 
  C126     1.0000 0.87110  0.74720  0.06340  Biso   1.000  C 
  H63      1.0000 0.90017  0.72962  0.08795  Biso   1.000  H 
  C127     1.0000 0.88330  0.76150  0.00870  Biso   1.000  C 
  C128     1.0000 0.83950  0.79180  0.97290  Biso   1.000  C 
  C129     1.0000 0.78440  0.80890  0.99090  Biso   1.000  C 
  H64      1.0000 0.75553  0.83273  0.96649  Biso   1.000  H 
  H65      1.0000 0.84708  0.80064  0.93671  Biso   1.000  H 
  C130     1.0000 0.94300  0.74690  0.98980  Biso   1.000  C 
  O28      1.0000 0.95423  0.78450  0.94192  Biso   1.000  O 
  O29      1.0000 0.98075  0.69370  0.02186  Biso   1.000  O 
  C131     1.0000 0.69990  0.85740  0.11620  Biso   1.000  C 
  H66      1.0000 0.72977  0.87010  0.14011  Biso   1.000  H 
  H67      1.0000 0.69122  0.13773  0.29408  Biso   1.000  H 
  O30      1.0000 0.62990  0.24360  0.36915  Biso   1.000  O 
  O31      1.0000 0.52050  0.55740  0.35448  Biso   1.000  O 
  C132     1.0000 0.75070  0.32790  0.55970  Biso   1.000  C 
  H68      1.0000 0.74316  0.34249  0.59580  Biso   1.000  H 
  C133     1.0000 0.80580  0.34100  0.54150  Biso   1.000  C 
  H69      1.0000 0.83490  0.36579  0.56549  Biso   1.000  H 
  H70      1.0000 0.91352  0.23461  0.53747  Biso   1.000  H 
  C134     1.0000 0.08150  0.09980  0.71430  Biso   1.000  C 
  H71      1.0000 0.05394  0.16301  0.69493  Biso   1.000  H 
  C135     1.0000 0.06940  0.04210  0.76520  Biso   1.000  C 
  H72      1.0000 0.03353  0.06296  0.77902  Biso   1.000  H 
  H73      1.0000 0.19122  0.86227  0.79408  Biso   1.000  H 
  O32      1.0000 0.12990  0.75640  0.86915  Biso   1.000  O 
  C136     1.0000 0.00590  0.46960  0.76000  Biso   1.000  C 
  C137     1.0000 0.05880  0.54760  0.75000  Biso   1.000  C 
  H74      1.0000 0.08390  0.56769  0.77812  Biso   1.000  H 
  C138     1.0000 0.07450  0.59530  0.69890  Biso   1.000  C 
  H75      1.0000 0.11023  0.64531  0.69293  Biso   1.000  H 
  C139     1.0000 0.03730  0.56940  0.65600  Biso   1.000  C 
  C140     1.0000 0.05190  0.62610  0.60150  Biso   1.000  C 
  C141     1.0000 0.10830  0.62690  0.58310  Biso   1.000  C 
  H76      1.0000 0.13707  0.59066  0.60628  Biso   1.000  H 
  C142     1.0000 0.12200  0.68020  0.53140  Biso   1.000  C 
  C143     1.0000 0.18170  0.68230  0.51230  Biso   1.000  C 
  C144     1.0000 0.19420  0.65900  0.45850  Biso   1.000  C 
  H77      1.0000 0.16510  0.63421  0.43451  Biso   1.000  H 
  C145     1.0000 0.24930  0.67210  0.44030  Biso   1.000  C 
  H78      1.0000 0.25684  0.65751  0.40420  Biso   1.000  H 
  C146     1.0000 0.29350  0.70730  0.47600  Biso   1.000  C 
  C147     1.0000 0.28150  0.72340  0.52980  Biso   1.000  C 
  H79      1.0000 0.31086  0.74255  0.55397  Biso   1.000  H 
  C148     1.0000 0.22630  0.71120  0.54800  Biso   1.000  C 
  H80      1.0000 0.21899  0.72248  0.58417  Biso   1.000  H 
  C149     1.0000 0.07820  0.73130  0.49740  Biso   1.000  C 
  H81      1.0000 0.08648  0.76539  0.46253  Biso   1.000  H 
  C150     1.0000 0.02250  0.73250  0.51410  Biso   1.000  C 
  N7       1.0000 0.98090  0.78030  0.47510  Biso   1.000  N 
  N8       1.0000 0.93120  0.77710  0.49314  Biso   1.000  N 
  C151     1.0000 0.88900  0.81310  0.45380  Biso   1.000  C 
  C152     1.0000 0.89980  0.86220  0.40090  Biso   1.000  C 
  H82      1.0000 0.93672  0.88054  0.38954  Biso   1.000  H 
  C153     1.0000 0.83360  0.79060  0.47170  Biso   1.000  C 
  H83      1.0000 0.82698  0.76054  0.50714  Biso   1.000  H 
  C154     1.0000 0.00960  0.68140  0.56630  Biso   1.000  C 
  H84      1.0000 0.97227  0.68440  0.57767  Biso   1.000  H 
  C155     1.0000 0.98480  0.48770  0.66620  Biso   1.000  C 
  H85      1.0000 0.95996  0.46491  0.63813  Biso   1.000  H 
  C156     1.0000 0.96920  0.44010  0.71740  Biso   1.000  C 
  H86      1.0000 0.93381  0.38775  0.72340  Biso   1.000  H 
  O33      1.0000 0.89630  0.94460  0.83870  Biso   1.000  O 
  C157     1.0000 0.90740  0.80000  0.82000  Biso   1.000  C 
  H87      1.0000 0.90707  0.80998  0.78184  Biso   1.000  H 
  H88      1.0000 0.87991  0.70879  0.83082  Biso   1.000  H 
  H89      1.0000 0.94426  0.76152  0.83183  Biso   1.000  H 
  C158     1.0000 0.57450  0.40470  0.19890  Biso   1.000  C 
  C159     1.0000 0.55880  0.45240  0.25000  Biso   1.000  C 
  H90      1.0000 0.58390  0.43231  0.27812  Biso   1.000  H 
  H91      1.0000 0.61023  0.35469  0.19293  Biso   1.000  H 
  H92      1.0000 0.43381  0.61225  0.22340  Biso   1.000  H 
  O34      1.0000 0.39630  0.05540  0.33870  Biso   1.000  O 
  C160     1.0000 0.40740  0.20000  0.32000  Biso   1.000  C 
  H93      1.0000 0.40707  0.19002  0.28184  Biso   1.000  H 
  H94      1.0000 0.44426  0.23848  0.33183  Biso   1.000  H 
  H95      1.0000 0.37991  0.29121  0.33082  Biso   1.000  H 
  O35      1.0000 0.51925  0.69370  0.47814  Biso   1.000  O 
  C161     1.0000 0.66050  0.79180  0.52710  Biso   1.000  C 
  H96      1.0000 0.65292  0.80064  0.56329  Biso   1.000  H 
  C162     1.0000 0.71560  0.80890  0.50910  Biso   1.000  C 
  H97      1.0000 0.74447  0.83273  0.53351  Biso   1.000  H 
  H98      1.0000 0.69202  0.74578  0.38340  Biso   1.000  H 
  C163     1.0000 0.91850  0.90020  0.28570  Biso   1.000  C 
  C164     1.0000 0.93060  0.95790  0.23480  Biso   1.000  C 
  H99      1.0000 0.96647  0.93704  0.22098  Biso   1.000  H 
  H100     1.0000 0.94606  0.83699  0.30507  Biso   1.000  H 
  O36      1.0000 0.95138  0.08920  0.12982  Biso   1.000  O 
