data_image0
_cell_length_a       25.6632
_cell_length_b       15.0315
_cell_length_c       17.7572
_cell_angle_alpha    90
_cell_angle_beta     90
_cell_angle_gamma    90

_symmetry_space_group_name_H-M    "P 1"
_symmetry_int_tables_number       1

loop_
  _symmetry_equiv_pos_as_xyz
  'x, y, z'

loop_
  _atom_site_label
  _atom_site_occupancy
  _atom_site_fract_x
  _atom_site_fract_y
  _atom_site_fract_z
  _atom_site_thermal_displace_type
  _atom_site_B_iso_or_equiv
  _atom_site_type_symbol
  Cd1      1.0000 0.19030  0.42485  0.45696  Biso   1.000  Cd
  Cd2      1.0000 0.30970  0.57515  0.45696  Biso   1.000  Cd
  Cd3      1.0000 0.19030  0.07515  0.04304  Biso   1.000  Cd
  Cd4      1.0000 0.30970  0.92485  0.04304  Biso   1.000  Cd
  Cd5      1.0000 0.80970  0.57515  0.54304  Biso   1.000  Cd
  Cd6      1.0000 0.69030  0.42485  0.54304  Biso   1.000  Cd
  Cd7      1.0000 0.80970  0.92485  0.95696  Biso   1.000  Cd
  Cd8      1.0000 0.69030  0.07515  0.95696  Biso   1.000  Cd
  Cl1      1.0000 0.17484  0.25149  0.45555  Biso   1.000  Cl
  Cl2      1.0000 0.32516  0.74851  0.45555  Biso   1.000  Cl
  Cl3      1.0000 0.17484  0.24851  0.04445  Biso   1.000  Cl
  Cl4      1.0000 0.32516  0.75149  0.04445  Biso   1.000  Cl
  Cl5      1.0000 0.82516  0.74851  0.54445  Biso   1.000  Cl
  Cl6      1.0000 0.67484  0.25149  0.54445  Biso   1.000  Cl
  Cl7      1.0000 0.82516  0.75149  0.95555  Biso   1.000  Cl
  Cl8      1.0000 0.67484  0.24851  0.95555  Biso   1.000  Cl
  Cl9      1.0000 0.29405  0.40222  0.46037  Biso   1.000  Cl
  Cl10     1.0000 0.20595  0.59778  0.46037  Biso   1.000  Cl
  Cl11     1.0000 0.29405  0.09778  0.03963  Biso   1.000  Cl
  Cl12     1.0000 0.20595  0.90222  0.03963  Biso   1.000  Cl
  Cl13     1.0000 0.70595  0.59778  0.53963  Biso   1.000  Cl
  Cl14     1.0000 0.79405  0.40222  0.53963  Biso   1.000  Cl
  Cl15     1.0000 0.70595  0.90222  0.96037  Biso   1.000  Cl
  Cl16     1.0000 0.79405  0.09778  0.96037  Biso   1.000  Cl
  N1       1.0000 0.28970  0.60960  0.70328  Biso   1.000  N 
  N2       1.0000 0.21030  0.39040  0.70328  Biso   1.000  N 
  N3       1.0000 0.28970  0.89040  0.79672  Biso   1.000  N 
  N4       1.0000 0.21030  0.10960  0.79672  Biso   1.000  N 
  N5       1.0000 0.71030  0.39040  0.29672  Biso   1.000  N 
  N6       1.0000 0.78970  0.60960  0.29672  Biso   1.000  N 
  N7       1.0000 0.71030  0.10960  0.20328  Biso   1.000  N 
  N8       1.0000 0.78970  0.89040  0.20328  Biso   1.000  N 
  N9       1.0000 0.15637  0.67430  0.94810  Biso   1.000  N 
  N10      1.0000 0.34363  0.32570  0.94810  Biso   1.000  N 
  N11      1.0000 0.15637  0.82570  0.55190  Biso   1.000  N 
  N12      1.0000 0.34363  0.17430  0.55190  Biso   1.000  N 
  N13      1.0000 0.84363  0.32570  0.05190  Biso   1.000  N 
  N14      1.0000 0.65637  0.67430  0.05190  Biso   1.000  N 
  N15      1.0000 0.84363  0.17430  0.44810  Biso   1.000  N 
  N16      1.0000 0.65637  0.82570  0.44810  Biso   1.000  N 
  N17      1.0000 0.19260  0.42750  0.32790  Biso   1.000  N 
  N18      1.0000 0.30740  0.57250  0.32790  Biso   1.000  N 
  N19      1.0000 0.19260  0.07250  0.17210  Biso   1.000  N 
  N20      1.0000 0.30740  0.92750  0.17210  Biso   1.000  N 
  N21      1.0000 0.80740  0.57250  0.67210  Biso   1.000  N 
  N22      1.0000 0.69260  0.42750  0.67210  Biso   1.000  N 
  N23      1.0000 0.80740  0.92750  0.82790  Biso   1.000  N 
  N24      1.0000 0.69260  0.07250  0.82790  Biso   1.000  N 
  N25      1.0000 0.90130  0.94450  0.94689  Biso   1.000  N 
  N26      1.0000 0.59870  0.05550  0.94689  Biso   1.000  N 
  N27      1.0000 0.90130  0.55550  0.55311  Biso   1.000  N 
  N28      1.0000 0.59870  0.44450  0.55311  Biso   1.000  N 
  N29      1.0000 0.09870  0.05550  0.05311  Biso   1.000  N 
  N30      1.0000 0.40130  0.94450  0.05311  Biso   1.000  N 
  N31      1.0000 0.09870  0.44450  0.44689  Biso   1.000  N 
  N32      1.0000 0.40130  0.55550  0.44689  Biso   1.000  N 
  N33      1.0000 0.18749  0.46840  0.20890  Biso   1.000  N 
  N34      1.0000 0.31251  0.53160  0.20890  Biso   1.000  N 
  N35      1.0000 0.18749  0.03160  0.29110  Biso   1.000  N 
  N36      1.0000 0.31251  0.96840  0.29110  Biso   1.000  N 
  N37      1.0000 0.81251  0.53160  0.79110  Biso   1.000  N 
  N38      1.0000 0.68749  0.46840  0.79110  Biso   1.000  N 
  N39      1.0000 0.81251  0.96840  0.70890  Biso   1.000  N 
  N40      1.0000 0.68749  0.03160  0.70890  Biso   1.000  N 
  N41      1.0000 0.98140  0.89900  0.93010  Biso   1.000  N 
  N42      1.0000 0.51860  0.10100  0.93010  Biso   1.000  N 
  N43      1.0000 0.98140  0.60100  0.56990  Biso   1.000  N 
  N44      1.0000 0.51860  0.39900  0.56990  Biso   1.000  N 
  N45      1.0000 0.01860  0.10100  0.06990  Biso   1.000  N 
  N46      1.0000 0.48140  0.89900  0.06990  Biso   1.000  N 
  N47      1.0000 0.01860  0.39900  0.43010  Biso   1.000  N 
  N48      1.0000 0.48140  0.60100  0.43010  Biso   1.000  N 
  N49      1.0000 0.31477  0.58300  0.58640  Biso   1.000  N 
  N50      1.0000 0.18523  0.41700  0.58640  Biso   1.000  N 
  N51      1.0000 0.31477  0.91700  0.91360  Biso   1.000  N 
  N52      1.0000 0.18523  0.08300  0.91360  Biso   1.000  N 
  N53      1.0000 0.68523  0.41700  0.41360  Biso   1.000  N 
  N54      1.0000 0.81477  0.58300  0.41360  Biso   1.000  N 
  N55      1.0000 0.68523  0.08300  0.08640  Biso   1.000  N 
  N56      1.0000 0.81477  0.91700  0.08640  Biso   1.000  N 
  C1       1.0000 0.93315  0.87590  0.95050  Biso   1.000  C 
  C2       1.0000 0.56685  0.12410  0.95050  Biso   1.000  C 
  C3       1.0000 0.93315  0.62410  0.54950  Biso   1.000  C 
  C4       1.0000 0.56685  0.37590  0.54950  Biso   1.000  C 
  C5       1.0000 0.06685  0.12410  0.04950  Biso   1.000  C 
  C6       1.0000 0.43315  0.87590  0.04950  Biso   1.000  C 
  C7       1.0000 0.06685  0.37590  0.45050  Biso   1.000  C 
  C8       1.0000 0.43315  0.62410  0.45050  Biso   1.000  C 
  H1       1.0000 0.92340  0.81900  0.96520  Biso   1.000  H 
  H2       1.0000 0.57660  0.18100  0.96520  Biso   1.000  H 
  H3       1.0000 0.92340  0.68100  0.53480  Biso   1.000  H 
  H4       1.0000 0.57660  0.31900  0.53480  Biso   1.000  H 
  H5       1.0000 0.07660  0.18100  0.03480  Biso   1.000  H 
  H6       1.0000 0.42340  0.81900  0.03480  Biso   1.000  H 
  H7       1.0000 0.07660  0.31900  0.46520  Biso   1.000  H 
  H8       1.0000 0.42340  0.68100  0.46520  Biso   1.000  H 
  C9       1.0000 0.16533  0.62350  0.01470  Biso   1.000  C 
  C10      1.0000 0.33467  0.37650  0.01470  Biso   1.000  C 
  C11      1.0000 0.16533  0.87650  0.48530  Biso   1.000  C 
  C12      1.0000 0.33467  0.12350  0.48530  Biso   1.000  C 
  C13      1.0000 0.83467  0.37650  0.98530  Biso   1.000  C 
  C14      1.0000 0.66533  0.62350  0.98530  Biso   1.000  C 
  C15      1.0000 0.83467  0.12350  0.51470  Biso   1.000  C 
  C16      1.0000 0.66533  0.87650  0.51470  Biso   1.000  C 
  C17      1.0000 0.19810  0.38030  0.21010  Biso   1.000  C 
  C18      1.0000 0.30190  0.61970  0.21010  Biso   1.000  C 
  C19      1.0000 0.19810  0.11970  0.28990  Biso   1.000  C 
  C20      1.0000 0.30190  0.88030  0.28990  Biso   1.000  C 
  C21      1.0000 0.80190  0.61970  0.78990  Biso   1.000  C 
  C22      1.0000 0.69810  0.38030  0.78990  Biso   1.000  C 
  C23      1.0000 0.80190  0.88030  0.71010  Biso   1.000  C 
  C24      1.0000 0.69810  0.11970  0.71010  Biso   1.000  C 
  H9       1.0000 0.20290  0.34370  0.16850  Biso   1.000  H 
  H10      1.0000 0.29710  0.65630  0.16850  Biso   1.000  H 
  H11      1.0000 0.20290  0.15630  0.33150  Biso   1.000  H 
  H12      1.0000 0.29710  0.84370  0.33150  Biso   1.000  H 
  H13      1.0000 0.79710  0.65630  0.83150  Biso   1.000  H 
  H14      1.0000 0.70290  0.34370  0.83150  Biso   1.000  H 
  H15      1.0000 0.79710  0.84370  0.66850  Biso   1.000  H 
  H16      1.0000 0.70290  0.15630  0.66850  Biso   1.000  H 
  C25      1.0000 0.17480  0.53420  0.00940  Biso   1.000  C 
  C26      1.0000 0.32520  0.46580  0.00940  Biso   1.000  C 
  C27      1.0000 0.17480  0.96580  0.49060  Biso   1.000  C 
  C28      1.0000 0.32520  0.03420  0.49060  Biso   1.000  C 
  C29      1.0000 0.82520  0.46580  0.99060  Biso   1.000  C 
  C30      1.0000 0.67480  0.53420  0.99060  Biso   1.000  C 
  C31      1.0000 0.82520  0.03420  0.50940  Biso   1.000  C 
  C32      1.0000 0.67480  0.96580  0.50940  Biso   1.000  C 
  H17      1.0000 0.17650  0.50730  0.96240  Biso   1.000  H 
  H18      1.0000 0.32350  0.49270  0.96240  Biso   1.000  H 
  H19      1.0000 0.17650  0.99270  0.53760  Biso   1.000  H 
  H20      1.0000 0.32350  0.00730  0.53760  Biso   1.000  H 
  H21      1.0000 0.82350  0.49270  0.03760  Biso   1.000  H 
  H22      1.0000 0.67650  0.50730  0.03760  Biso   1.000  H 
  H23      1.0000 0.82350  0.00730  0.46240  Biso   1.000  H 
  H24      1.0000 0.67650  0.99270  0.46240  Biso   1.000  H 
  C33      1.0000 0.18188  0.48350  0.07390  Biso   1.000  C 
  C34      1.0000 0.31812  0.51650  0.07390  Biso   1.000  C 
  C35      1.0000 0.18188  0.01650  0.42610  Biso   1.000  C 
  C36      1.0000 0.31812  0.98350  0.42610  Biso   1.000  C 
  C37      1.0000 0.81812  0.51650  0.92610  Biso   1.000  C 
  C38      1.0000 0.68188  0.48350  0.92610  Biso   1.000  C 
  C39      1.0000 0.81812  0.98350  0.57390  Biso   1.000  C 
  C40      1.0000 0.68188  0.01650  0.57390  Biso   1.000  C 
  H25      1.0000 0.18740  0.42260  0.06980  Biso   1.000  H 
  H26      1.0000 0.31260  0.57740  0.06980  Biso   1.000  H 
  H27      1.0000 0.18740  0.07740  0.43020  Biso   1.000  H 
  H28      1.0000 0.31260  0.92260  0.43020  Biso   1.000  H 
  H29      1.0000 0.81260  0.57740  0.93020  Biso   1.000  H 
  H30      1.0000 0.68740  0.42260  0.93020  Biso   1.000  H 
  H31      1.0000 0.81260  0.92260  0.56980  Biso   1.000  H 
  H32      1.0000 0.68740  0.07740  0.56980  Biso   1.000  H 
  C41      1.0000 0.18599  0.49440  0.28130  Biso   1.000  C 
  C42      1.0000 0.31401  0.50560  0.28130  Biso   1.000  C 
  C43      1.0000 0.18599  0.00560  0.21870  Biso   1.000  C 
  C44      1.0000 0.31401  0.99440  0.21870  Biso   1.000  C 
  C45      1.0000 0.81401  0.50560  0.71870  Biso   1.000  C 
  C46      1.0000 0.68599  0.49440  0.71870  Biso   1.000  C 
  C47      1.0000 0.81401  0.99440  0.78130  Biso   1.000  C 
  C48      1.0000 0.68599  0.00560  0.78130  Biso   1.000  C 
  H33      1.0000 0.18090  0.55290  0.29660  Biso   1.000  H 
  H34      1.0000 0.31910  0.44710  0.29660  Biso   1.000  H 
  H35      1.0000 0.18090  0.94710  0.20340  Biso   1.000  H 
  H36      1.0000 0.31910  0.05290  0.20340  Biso   1.000  H 
  H37      1.0000 0.81910  0.44710  0.70340  Biso   1.000  H 
  H38      1.0000 0.68090  0.55290  0.70340  Biso   1.000  H 
  H39      1.0000 0.81910  0.05290  0.79660  Biso   1.000  H 
  H40      1.0000 0.68090  0.94710  0.79660  Biso   1.000  H 
  C49      1.0000 0.35728  0.57890  0.63320  Biso   1.000  C 
  C50      1.0000 0.14272  0.42110  0.63320  Biso   1.000  C 
  C51      1.0000 0.35728  0.92110  0.86680  Biso   1.000  C 
  C52      1.0000 0.14272  0.07890  0.86680  Biso   1.000  C 
  C53      1.0000 0.64272  0.42110  0.36680  Biso   1.000  C 
  C54      1.0000 0.85728  0.57890  0.36680  Biso   1.000  C 
  C55      1.0000 0.64272  0.07890  0.13320  Biso   1.000  C 
  C56      1.0000 0.85728  0.92110  0.13320  Biso   1.000  C 
  H41      1.0000 0.39110  0.56680  0.61760  Biso   1.000  H 
  H42      1.0000 0.10890  0.43320  0.61760  Biso   1.000  H 
  H43      1.0000 0.39110  0.93320  0.88240  Biso   1.000  H 
  H44      1.0000 0.10890  0.06680  0.88240  Biso   1.000  H 
  H45      1.0000 0.60890  0.43320  0.38240  Biso   1.000  H 
  H46      1.0000 0.89110  0.56680  0.38240  Biso   1.000  H 
  H47      1.0000 0.60890  0.06680  0.11760  Biso   1.000  H 
  H48      1.0000 0.89110  0.93320  0.11760  Biso   1.000  H 
  C57      1.0000 0.18084  0.52230  0.14300  Biso   1.000  C 
  C58      1.0000 0.31916  0.47770  0.14300  Biso   1.000  C 
  C59      1.0000 0.18084  0.97770  0.35700  Biso   1.000  C 
  C60      1.0000 0.31916  0.02230  0.35700  Biso   1.000  C 
  C61      1.0000 0.81916  0.47770  0.85700  Biso   1.000  C 
  C62      1.0000 0.68084  0.52230  0.85700  Biso   1.000  C 
  C63      1.0000 0.81916  0.02230  0.64300  Biso   1.000  C 
  C64      1.0000 0.68084  0.97770  0.64300  Biso   1.000  C 
  C65      1.0000 0.18948  0.65990  0.88500  Biso   1.000  C 
  C66      1.0000 0.31052  0.34010  0.88500  Biso   1.000  C 
  C67      1.0000 0.18948  0.84010  0.61500  Biso   1.000  C 
  C68      1.0000 0.31052  0.15990  0.61500  Biso   1.000  C 
  C69      1.0000 0.81052  0.34010  0.11500  Biso   1.000  C 
  C70      1.0000 0.68948  0.65990  0.11500  Biso   1.000  C 
  C71      1.0000 0.81052  0.15990  0.38500  Biso   1.000  C 
  C72      1.0000 0.68948  0.84010  0.38500  Biso   1.000  C 
  C73      1.0000 0.27526  0.60320  0.63030  Biso   1.000  C 
  C74      1.0000 0.22474  0.39680  0.63030  Biso   1.000  C 
  C75      1.0000 0.27526  0.89680  0.86970  Biso   1.000  C 
  C76      1.0000 0.22474  0.10320  0.86970  Biso   1.000  C 
  C77      1.0000 0.72474  0.39680  0.36970  Biso   1.000  C 
  C78      1.0000 0.77526  0.60320  0.36970  Biso   1.000  C 
  C79      1.0000 0.72474  0.10320  0.13030  Biso   1.000  C 
  C80      1.0000 0.77526  0.89680  0.13030  Biso   1.000  C 
  H49      1.0000 0.24140  0.61200  0.61310  Biso   1.000  H 
  H50      1.0000 0.25860  0.38800  0.61310  Biso   1.000  H 
  H51      1.0000 0.24140  0.88800  0.88690  Biso   1.000  H 
  H52      1.0000 0.25860  0.11200  0.88690  Biso   1.000  H 
  H53      1.0000 0.75860  0.38800  0.38690  Biso   1.000  H 
  H54      1.0000 0.74140  0.61200  0.38690  Biso   1.000  H 
  H55      1.0000 0.75860  0.11200  0.11310  Biso   1.000  H 
  H56      1.0000 0.74140  0.88800  0.11310  Biso   1.000  H 
  C81      1.0000 0.27587  0.65920  0.83230  Biso   1.000  C 
  C82      1.0000 0.22413  0.34080  0.83230  Biso   1.000  C 
  C83      1.0000 0.27587  0.84080  0.66770  Biso   1.000  C 
  C84      1.0000 0.22413  0.15920  0.66770  Biso   1.000  C 
  C85      1.0000 0.72413  0.34080  0.16770  Biso   1.000  C 
  C86      1.0000 0.77587  0.65920  0.16770  Biso   1.000  C 
  C87      1.0000 0.72413  0.15920  0.33230  Biso   1.000  C 
  C88      1.0000 0.77587  0.84080  0.33230  Biso   1.000  C 
  H57      1.0000 0.31140  0.67010  0.83710  Biso   1.000  H 
  H58      1.0000 0.18860  0.32990  0.83710  Biso   1.000  H 
  H59      1.0000 0.31140  0.82990  0.66290  Biso   1.000  H 
  H60      1.0000 0.18860  0.17010  0.66290  Biso   1.000  H 
  H61      1.0000 0.68860  0.32990  0.16290  Biso   1.000  H 
  H62      1.0000 0.81140  0.67010  0.16290  Biso   1.000  H 
  H63      1.0000 0.68860  0.17010  0.33710  Biso   1.000  H 
  H64      1.0000 0.81140  0.82990  0.33710  Biso   1.000  H 
  C89      1.0000 0.17019  0.62660  0.81810  Biso   1.000  C 
  C90      1.0000 0.32981  0.37340  0.81810  Biso   1.000  C 
  C91      1.0000 0.17019  0.87340  0.68190  Biso   1.000  C 
  C92      1.0000 0.32981  0.12660  0.68190  Biso   1.000  C 
  C93      1.0000 0.82981  0.37340  0.18190  Biso   1.000  C 
  C94      1.0000 0.67019  0.62660  0.18190  Biso   1.000  C 
  C95      1.0000 0.82981  0.12660  0.31810  Biso   1.000  C 
  C96      1.0000 0.67019  0.87340  0.31810  Biso   1.000  C 
  H65      1.0000 0.13470  0.61540  0.81330  Biso   1.000  H 
  H66      1.0000 0.36530  0.38460  0.81330  Biso   1.000  H 
  H67      1.0000 0.13470  0.88460  0.68670  Biso   1.000  H 
  H68      1.0000 0.36530  0.11540  0.68670  Biso   1.000  H 
  H69      1.0000 0.86530  0.38460  0.18670  Biso   1.000  H 
  H70      1.0000 0.63470  0.61540  0.18670  Biso   1.000  H 
  H71      1.0000 0.86530  0.11540  0.31330  Biso   1.000  H 
  H72      1.0000 0.63470  0.88460  0.31330  Biso   1.000  H 
  C97      1.0000 0.34301  0.59500  0.70500  Biso   1.000  C 
  C98      1.0000 0.15699  0.40500  0.70500  Biso   1.000  C 
  C99      1.0000 0.34301  0.90500  0.79500  Biso   1.000  C 
  C100     1.0000 0.15699  0.09500  0.79500  Biso   1.000  C 
  C101     1.0000 0.65699  0.40500  0.29500  Biso   1.000  C 
  C102     1.0000 0.84301  0.59500  0.29500  Biso   1.000  C 
  C103     1.0000 0.65699  0.09500  0.20500  Biso   1.000  C 
  C104     1.0000 0.84301  0.90500  0.20500  Biso   1.000  C 
  H73      1.0000 0.36450  0.59600  0.74710  Biso   1.000  H 
  H74      1.0000 0.13550  0.40400  0.74710  Biso   1.000  H 
  H75      1.0000 0.36450  0.90400  0.75290  Biso   1.000  H 
  H76      1.0000 0.13550  0.09600  0.75290  Biso   1.000  H 
  H77      1.0000 0.63550  0.40400  0.25290  Biso   1.000  H 
  H78      1.0000 0.86450  0.59600  0.25290  Biso   1.000  H 
  H79      1.0000 0.63550  0.09600  0.24710  Biso   1.000  H 
  H80      1.0000 0.86450  0.90400  0.24710  Biso   1.000  H 
  C105     1.0000 0.24265  0.67580  0.89250  Biso   1.000  C 
  C106     1.0000 0.25735  0.32420  0.89250  Biso   1.000  C 
  C107     1.0000 0.24265  0.82420  0.60750  Biso   1.000  C 
  C108     1.0000 0.25735  0.17580  0.60750  Biso   1.000  C 
  C109     1.0000 0.75735  0.32420  0.10750  Biso   1.000  C 
  C110     1.0000 0.74265  0.67580  0.10750  Biso   1.000  C 
  C111     1.0000 0.75735  0.17580  0.39250  Biso   1.000  C 
  C112     1.0000 0.74265  0.82420  0.39250  Biso   1.000  C 
  H81      1.0000 0.25590  0.69750  0.93770  Biso   1.000  H 
  H82      1.0000 0.24410  0.30250  0.93770  Biso   1.000  H 
  H83      1.0000 0.25590  0.80250  0.56230  Biso   1.000  H 
  H84      1.0000 0.24410  0.19750  0.56230  Biso   1.000  H 
  H85      1.0000 0.74410  0.30250  0.06230  Biso   1.000  H 
  H86      1.0000 0.75590  0.69750  0.06230  Biso   1.000  H 
  H87      1.0000 0.74410  0.19750  0.43770  Biso   1.000  H 
  H88      1.0000 0.75590  0.80250  0.43770  Biso   1.000  H 
  C113     1.0000 0.25618  0.62670  0.76544  Biso   1.000  C 
  C114     1.0000 0.24382  0.37330  0.76544  Biso   1.000  C 
  C115     1.0000 0.25618  0.87330  0.73456  Biso   1.000  C 
  C116     1.0000 0.24382  0.12670  0.73456  Biso   1.000  C 
  C117     1.0000 0.74382  0.37330  0.23456  Biso   1.000  C 
  C118     1.0000 0.75618  0.62670  0.23456  Biso   1.000  C 
  C119     1.0000 0.74382  0.12670  0.26544  Biso   1.000  C 
  C120     1.0000 0.75618  0.87330  0.26544  Biso   1.000  C 
  C121     1.0000 0.11200  0.72940  0.94230  Biso   1.000  C 
  C122     1.0000 0.38800  0.27060  0.94230  Biso   1.000  C 
  C123     1.0000 0.11200  0.77060  0.55770  Biso   1.000  C 
  C124     1.0000 0.38800  0.22940  0.55770  Biso   1.000  C 
  C125     1.0000 0.88800  0.27060  0.05770  Biso   1.000  C 
  C126     1.0000 0.61200  0.72940  0.05770  Biso   1.000  C 
  C127     1.0000 0.88800  0.22940  0.44230  Biso   1.000  C 
  C128     1.0000 0.61200  0.77060  0.44230  Biso   1.000  C 
  C129     1.0000 0.06737  0.85330  0.88500  Biso   1.000  C 
  C130     1.0000 0.43263  0.14670  0.88500  Biso   1.000  C 
  C131     1.0000 0.06737  0.64670  0.61500  Biso   1.000  C 
  C132     1.0000 0.43263  0.35330  0.61500  Biso   1.000  C 
  C133     1.0000 0.93263  0.14670  0.11500  Biso   1.000  C 
  C134     1.0000 0.56737  0.85330  0.11500  Biso   1.000  C 
  C135     1.0000 0.93263  0.35330  0.38500  Biso   1.000  C 
  C136     1.0000 0.56737  0.64670  0.38500  Biso   1.000  C 
  H89      1.0000 0.06670  0.89860  0.84940  Biso   1.000  H 
  H90      1.0000 0.43330  0.10140  0.84940  Biso   1.000  H 
  H91      1.0000 0.06670  0.60140  0.65060  Biso   1.000  H 
  H92      1.0000 0.43330  0.39860  0.65060  Biso   1.000  H 
  H93      1.0000 0.93330  0.10140  0.15060  Biso   1.000  H 
  H94      1.0000 0.56670  0.89860  0.15060  Biso   1.000  H 
  H95      1.0000 0.93330  0.39860  0.34940  Biso   1.000  H 
  H96      1.0000 0.56670  0.60140  0.34940  Biso   1.000  H 
  C137     1.0000 0.11033  0.79800  0.89020  Biso   1.000  C 
  C138     1.0000 0.38967  0.20200  0.89020  Biso   1.000  C 
  C139     1.0000 0.11033  0.70200  0.60980  Biso   1.000  C 
  C140     1.0000 0.38967  0.29800  0.60980  Biso   1.000  C 
  C141     1.0000 0.88967  0.20200  0.10980  Biso   1.000  C 
  C142     1.0000 0.61033  0.79800  0.10980  Biso   1.000  C 
  C143     1.0000 0.88967  0.29800  0.39020  Biso   1.000  C 
  C144     1.0000 0.61033  0.70200  0.39020  Biso   1.000  C 
  H97      1.0000 0.13850  0.80700  0.85820  Biso   1.000  H 
  H98      1.0000 0.36150  0.19300  0.85820  Biso   1.000  H 
  H99      1.0000 0.13850  0.69300  0.64180  Biso   1.000  H 
  H100     1.0000 0.36150  0.30700  0.64180  Biso   1.000  H 
  H101     1.0000 0.86150  0.19300  0.14180  Biso   1.000  H 
  H102     1.0000 0.63850  0.80700  0.14180  Biso   1.000  H 
  H103     1.0000 0.86150  0.30700  0.35820  Biso   1.000  H 
  H104     1.0000 0.63850  0.69300  0.35820  Biso   1.000  H 
  C145     1.0000 0.02575  0.84120  0.93270  Biso   1.000  C 
  C146     1.0000 0.47425  0.15880  0.93270  Biso   1.000  C 
  C147     1.0000 0.02575  0.65880  0.56730  Biso   1.000  C 
  C148     1.0000 0.47425  0.34120  0.56730  Biso   1.000  C 
  C149     1.0000 0.97425  0.15880  0.06730  Biso   1.000  C 
  C150     1.0000 0.52575  0.84120  0.06730  Biso   1.000  C 
  C151     1.0000 0.97425  0.34120  0.43270  Biso   1.000  C 
  C152     1.0000 0.52575  0.65880  0.43270  Biso   1.000  C 
  C153     1.0000 0.20040  0.35540  0.28370  Biso   1.000  C 
  C154     1.0000 0.29960  0.64460  0.28370  Biso   1.000  C 
  C155     1.0000 0.20040  0.14460  0.21630  Biso   1.000  C 
  C156     1.0000 0.29960  0.85540  0.21630  Biso   1.000  C 
  C157     1.0000 0.79960  0.64460  0.71630  Biso   1.000  C 
  C158     1.0000 0.70040  0.35540  0.71630  Biso   1.000  C 
  C159     1.0000 0.79960  0.85540  0.78370  Biso   1.000  C 
  C160     1.0000 0.70040  0.14460  0.78370  Biso   1.000  C 
  H105     1.0000 0.20640  0.29790  0.30090  Biso   1.000  H 
  H106     1.0000 0.29360  0.70210  0.30090  Biso   1.000  H 
  H107     1.0000 0.20640  0.20210  0.19910  Biso   1.000  H 
  H108     1.0000 0.29360  0.79790  0.19910  Biso   1.000  H 
  H109     1.0000 0.79360  0.70210  0.69910  Biso   1.000  H 
  H110     1.0000 0.70640  0.29790  0.69910  Biso   1.000  H 
  H111     1.0000 0.79360  0.79790  0.80090  Biso   1.000  H 
  H112     1.0000 0.70640  0.20210  0.80090  Biso   1.000  H 
  C161     1.0000 0.17440  0.61260  0.14840  Biso   1.000  C 
  C162     1.0000 0.32560  0.38740  0.14840  Biso   1.000  C 
  C163     1.0000 0.17440  0.88740  0.35160  Biso   1.000  C 
  C164     1.0000 0.32560  0.11260  0.35160  Biso   1.000  C 
  C165     1.0000 0.82560  0.38740  0.85160  Biso   1.000  C 
  C166     1.0000 0.67440  0.61260  0.85160  Biso   1.000  C 
  C167     1.0000 0.82560  0.11260  0.64840  Biso   1.000  C 
  C168     1.0000 0.67440  0.88740  0.64840  Biso   1.000  C 
  H113     1.0000 0.17470  0.64010  0.19540  Biso   1.000  H 
  H114     1.0000 0.32530  0.35990  0.19540  Biso   1.000  H 
  H115     1.0000 0.17470  0.85990  0.30460  Biso   1.000  H 
  H116     1.0000 0.32530  0.14010  0.30460  Biso   1.000  H 
  H117     1.0000 0.82530  0.35990  0.80460  Biso   1.000  H 
  H118     1.0000 0.67470  0.64010  0.80460  Biso   1.000  H 
  H119     1.0000 0.82530  0.14010  0.69540  Biso   1.000  H 
  H120     1.0000 0.67470  0.85990  0.69540  Biso   1.000  H 
  C169     1.0000 0.20318  0.60980  0.75800  Biso   1.000  C 
  C170     1.0000 0.29682  0.39020  0.75800  Biso   1.000  C 
  C171     1.0000 0.20318  0.89020  0.74200  Biso   1.000  C 
  C172     1.0000 0.29682  0.10980  0.74200  Biso   1.000  C 
  C173     1.0000 0.79682  0.39020  0.24200  Biso   1.000  C 
  C174     1.0000 0.70318  0.60980  0.24200  Biso   1.000  C 
  C175     1.0000 0.79682  0.10980  0.25800  Biso   1.000  C 
  C176     1.0000 0.70318  0.89020  0.25800  Biso   1.000  C 
  H121     1.0000 0.19000  0.58740  0.71300  Biso   1.000  H 
  H122     1.0000 0.31000  0.41260  0.71300  Biso   1.000  H 
  H123     1.0000 0.19000  0.91260  0.78700  Biso   1.000  H 
  H124     1.0000 0.31000  0.08740  0.78700  Biso   1.000  H 
  H125     1.0000 0.81000  0.41260  0.28700  Biso   1.000  H 
  H126     1.0000 0.69000  0.58740  0.28700  Biso   1.000  H 
  H127     1.0000 0.81000  0.08740  0.21300  Biso   1.000  H 
  H128     1.0000 0.69000  0.91260  0.21300  Biso   1.000  H 
  C177     1.0000 0.16740  0.66280  0.08360  Biso   1.000  C 
  C178     1.0000 0.33260  0.33720  0.08360  Biso   1.000  C 
  C179     1.0000 0.16740  0.83720  0.41640  Biso   1.000  C 
  C180     1.0000 0.33260  0.16280  0.41640  Biso   1.000  C 
  C181     1.0000 0.83260  0.33720  0.91640  Biso   1.000  C 
  C182     1.0000 0.66740  0.66280  0.91640  Biso   1.000  C 
  C183     1.0000 0.83260  0.16280  0.58360  Biso   1.000  C 
  C184     1.0000 0.66740  0.83720  0.58360  Biso   1.000  C 
  H129     1.0000 0.16410  0.72430  0.08730  Biso   1.000  H 
  H130     1.0000 0.33590  0.27570  0.08730  Biso   1.000  H 
  H131     1.0000 0.16410  0.77570  0.41270  Biso   1.000  H 
  H132     1.0000 0.33590  0.22430  0.41270  Biso   1.000  H 
  H133     1.0000 0.83590  0.27570  0.91270  Biso   1.000  H 
  H134     1.0000 0.66410  0.72430  0.91270  Biso   1.000  H 
  H135     1.0000 0.83590  0.22430  0.58730  Biso   1.000  H 
  H136     1.0000 0.66410  0.77570  0.58730  Biso   1.000  H 
  C185     1.0000 0.92990  0.01560  0.92300  Biso   1.000  C 
  C186     1.0000 0.57010  0.98440  0.92300  Biso   1.000  C 
  C187     1.0000 0.92990  0.48440  0.57700  Biso   1.000  C 
  C188     1.0000 0.57010  0.51560  0.57700  Biso   1.000  C 
  C189     1.0000 0.07010  0.98440  0.07700  Biso   1.000  C 
  C190     1.0000 0.42990  0.01560  0.07700  Biso   1.000  C 
  C191     1.0000 0.07010  0.51560  0.42300  Biso   1.000  C 
  C192     1.0000 0.42990  0.48440  0.42300  Biso   1.000  C 
  H137     1.0000 0.91710  0.07260  0.91470  Biso   1.000  H 
  H138     1.0000 0.58290  0.92740  0.91470  Biso   1.000  H 
  H139     1.0000 0.91710  0.42740  0.58530  Biso   1.000  H 
  H140     1.0000 0.58290  0.57260  0.58530  Biso   1.000  H 
  H141     1.0000 0.08290  0.92740  0.08530  Biso   1.000  H 
  H142     1.0000 0.41710  0.07260  0.08530  Biso   1.000  H 
  H143     1.0000 0.08290  0.57260  0.41470  Biso   1.000  H 
  H144     1.0000 0.41710  0.42740  0.41470  Biso   1.000  H 
  C193     1.0000 0.02660  0.77310  0.98430  Biso   1.000  C 
  C194     1.0000 0.47340  0.22690  0.98430  Biso   1.000  C 
  C195     1.0000 0.02660  0.72690  0.51570  Biso   1.000  C 
  C196     1.0000 0.47340  0.27310  0.51570  Biso   1.000  C 
  C197     1.0000 0.97340  0.22690  0.01570  Biso   1.000  C 
  C198     1.0000 0.52660  0.77310  0.01570  Biso   1.000  C 
  C199     1.0000 0.97340  0.27310  0.48430  Biso   1.000  C 
  C200     1.0000 0.52660  0.72690  0.48430  Biso   1.000  C 
  H145     1.0000 0.99850  0.76460  0.01640  Biso   1.000  H 
  H146     1.0000 0.50150  0.23540  0.01640  Biso   1.000  H 
  H147     1.0000 0.99850  0.73540  0.48360  Biso   1.000  H 
  H148     1.0000 0.50150  0.26460  0.48360  Biso   1.000  H 
  H149     1.0000 0.00150  0.23540  0.98360  Biso   1.000  H 
  H150     1.0000 0.49850  0.76460  0.98360  Biso   1.000  H 
  H151     1.0000 0.00150  0.26460  0.51640  Biso   1.000  H 
  H152     1.0000 0.49850  0.73540  0.51640  Biso   1.000  H 
  C201     1.0000 0.06980  0.71670  0.98860  Biso   1.000  C 
  C202     1.0000 0.43020  0.28330  0.98860  Biso   1.000  C 
  C203     1.0000 0.06980  0.78330  0.51140  Biso   1.000  C 
  C204     1.0000 0.43020  0.21670  0.51140  Biso   1.000  C 
  C205     1.0000 0.93020  0.28330  0.01140  Biso   1.000  C 
  C206     1.0000 0.56980  0.71670  0.01140  Biso   1.000  C 
  C207     1.0000 0.93020  0.21670  0.48860  Biso   1.000  C 
  C208     1.0000 0.56980  0.78330  0.48860  Biso   1.000  C 
  H153     1.0000 0.06990  0.67010  0.02300  Biso   1.000  H 
  H154     1.0000 0.43010  0.32990  0.02300  Biso   1.000  H 
  H155     1.0000 0.06990  0.82990  0.47700  Biso   1.000  H 
  H156     1.0000 0.43010  0.17010  0.47700  Biso   1.000  H 
  H157     1.0000 0.93010  0.32990  0.97700  Biso   1.000  H 
  H158     1.0000 0.56990  0.67010  0.97700  Biso   1.000  H 
  H159     1.0000 0.93010  0.17010  0.52300  Biso   1.000  H 
  H160     1.0000 0.56990  0.82990  0.52300  Biso   1.000  H 
  C209     1.0000 0.98020  0.98950  0.91320  Biso   1.000  C 
  C210     1.0000 0.51980  0.01050  0.91320  Biso   1.000  C 
  C211     1.0000 0.98020  0.51050  0.58680  Biso   1.000  C 
  C212     1.0000 0.51980  0.48950  0.58680  Biso   1.000  C 
  C213     1.0000 0.01980  0.01050  0.08680  Biso   1.000  C 
  C214     1.0000 0.48020  0.98950  0.08680  Biso   1.000  C 
  C215     1.0000 0.01980  0.48950  0.41320  Biso   1.000  C 
  C216     1.0000 0.48020  0.51050  0.41320  Biso   1.000  C 
  H161     1.0000 0.00810  0.02480  0.89820  Biso   1.000  H 
  H162     1.0000 0.49190  0.97520  0.89820  Biso   1.000  H 
  H163     1.0000 0.00810  0.47520  0.60180  Biso   1.000  H 
  H164     1.0000 0.49190  0.52480  0.60180  Biso   1.000  H 
  H165     1.0000 0.99190  0.97520  0.10180  Biso   1.000  H 
  H166     1.0000 0.50810  0.02480  0.10180  Biso   1.000  H 
  H167     1.0000 0.99190  0.52480  0.39820  Biso   1.000  H 
  H168     1.0000 0.50810  0.47520  0.39820  Biso   1.000  H 
