data_image0
_cell_length_a       7.518
_cell_length_b       6.713
_cell_length_c       26.19
_cell_angle_alpha    90
_cell_angle_beta     103.1
_cell_angle_gamma    90

_symmetry_space_group_name_H-M    "P 1"
_symmetry_int_tables_number       1

loop_
  _symmetry_equiv_pos_as_xyz
  'x, y, z'

loop_
  _atom_site_label
  _atom_site_occupancy
  _atom_site_fract_x
  _atom_site_fract_y
  _atom_site_fract_z
  _atom_site_thermal_displace_type
  _atom_site_B_iso_or_equiv
  _atom_site_type_symbol
  Ag1      1.0000 0.69700  0.76810  0.48810  Biso   1.000  Ag
  Ag2      1.0000 0.30300  0.26810  0.01190  Biso   1.000  Ag
  Ag3      1.0000 0.30300  0.23190  0.51190  Biso   1.000  Ag
  Ag4      1.0000 0.69700  0.73190  0.98810  Biso   1.000  Ag
  S1       1.0000 0.34240  0.87070  0.40510  Biso   1.000  S 
  S2       1.0000 0.65760  0.37070  0.09490  Biso   1.000  S 
  S3       1.0000 0.65760  0.12930  0.59490  Biso   1.000  S 
  S4       1.0000 0.34240  0.62930  0.90510  Biso   1.000  S 
  O1       1.0000 0.50210  0.87860  0.38610  Biso   1.000  O 
  O2       1.0000 0.49790  0.37860  0.11390  Biso   1.000  O 
  O3       1.0000 0.49790  0.12140  0.61390  Biso   1.000  O 
  O4       1.0000 0.50210  0.62140  0.88610  Biso   1.000  O 
  O5       1.0000 0.25500  0.05530  0.40610  Biso   1.000  O 
  O6       1.0000 0.74500  0.55530  0.09390  Biso   1.000  O 
  O7       1.0000 0.74500  0.94470  0.59390  Biso   1.000  O 
  O8       1.0000 0.25500  0.44470  0.90610  Biso   1.000  O 
  N1       1.0000 0.40400  0.76720  0.46100  Biso   1.000  N 
  N2       1.0000 0.59600  0.26720  0.03900  Biso   1.000  N 
  N3       1.0000 0.59600  0.23280  0.53900  Biso   1.000  N 
  N4       1.0000 0.40400  0.73280  0.96100  Biso   1.000  N 
  C1       1.0000 0.28960  0.73560  0.49370  Biso   1.000  C 
  C2       1.0000 0.71040  0.23560  0.00630  Biso   1.000  C 
  C3       1.0000 0.71040  0.26440  0.50630  Biso   1.000  C 
  C4       1.0000 0.28960  0.76440  0.99370  Biso   1.000  C 
  C5       1.0000 0.09170  0.76980  0.48320  Biso   1.000  C 
  C6       1.0000 0.90830  0.26980  0.01680  Biso   1.000  C 
  C7       1.0000 0.90830  0.23020  0.51680  Biso   1.000  C 
  C8       1.0000 0.09170  0.73020  0.98320  Biso   1.000  C 
  N5       1.0000 0.99410  0.74140  0.51370  Biso   1.000  N 
  N6       1.0000 0.00590  0.24140  0.98630  Biso   1.000  N 
  N7       1.0000 0.00590  0.25860  0.48630  Biso   1.000  N 
  N8       1.0000 0.99410  0.75860  0.01370  Biso   1.000  N 
  C9       1.0000 0.05830  0.68290  0.56160  Biso   1.000  C 
  C10      1.0000 0.94170  0.18290  0.93840  Biso   1.000  C 
  C11      1.0000 0.94170  0.31710  0.43840  Biso   1.000  C 
  C12      1.0000 0.05830  0.81710  0.06160  Biso   1.000  C 
  C13      1.0000 0.25330  0.65500  0.57810  Biso   1.000  C 
  C14      1.0000 0.74670  0.15500  0.92190  Biso   1.000  C 
  C15      1.0000 0.74670  0.34500  0.42190  Biso   1.000  C 
  C16      1.0000 0.25330  0.84500  0.07810  Biso   1.000  C 
  C17      1.0000 0.36430  0.68140  0.54500  Biso   1.000  C 
  C18      1.0000 0.63570  0.18140  0.95500  Biso   1.000  C 
  C19      1.0000 0.63570  0.31860  0.45500  Biso   1.000  C 
  C20      1.0000 0.36430  0.81860  0.04500  Biso   1.000  C 
  C21      1.0000 0.18070  0.71540  0.36270  Biso   1.000  C 
  C22      1.0000 0.81930  0.21540  0.13730  Biso   1.000  C 
  C23      1.0000 0.81930  0.28460  0.63730  Biso   1.000  C 
  C24      1.0000 0.18070  0.78460  0.86270  Biso   1.000  C 
  C25      1.0000 0.24290  0.54210  0.34960  Biso   1.000  C 
  C26      1.0000 0.75710  0.04210  0.15040  Biso   1.000  C 
  C27      1.0000 0.75710  0.45790  0.65040  Biso   1.000  C 
  C28      1.0000 0.24290  0.95790  0.84960  Biso   1.000  C 
  C29      1.0000 0.10650  0.42540  0.31510  Biso   1.000  C 
  C30      1.0000 0.89350  0.92540  0.18490  Biso   1.000  C 
  C31      1.0000 0.89350  0.57460  0.68490  Biso   1.000  C 
  C32      1.0000 0.10650  0.07460  0.81510  Biso   1.000  C 
  C33      1.0000 0.92380  0.49300  0.29680  Biso   1.000  C 
  C34      1.0000 0.07620  0.99300  0.20320  Biso   1.000  C 
  C35      1.0000 0.07620  0.50700  0.70320  Biso   1.000  C 
  C36      1.0000 0.92380  0.00700  0.79680  Biso   1.000  C 
  C37      1.0000 0.86390  0.67010  0.31190  Biso   1.000  C 
  C38      1.0000 0.13610  0.17010  0.18810  Biso   1.000  C 
  C39      1.0000 0.13610  0.32990  0.68810  Biso   1.000  C 
  C40      1.0000 0.86390  0.82990  0.81190  Biso   1.000  C 
  C41      1.0000 0.99710  0.79320  0.34810  Biso   1.000  C 
  C42      1.0000 0.00290  0.29320  0.15190  Biso   1.000  C 
  C43      1.0000 0.00290  0.20680  0.65190  Biso   1.000  C 
  C44      1.0000 0.99710  0.70680  0.84810  Biso   1.000  C 
  N9       1.0000 0.79370  0.35830  0.26440  Biso   1.000  N 
  N10      1.0000 0.20630  0.85830  0.23560  Biso   1.000  N 
  N11      1.0000 0.20630  0.64170  0.73560  Biso   1.000  N 
  N12      1.0000 0.79370  0.14170  0.76440  Biso   1.000  N 
  H1       1.0000 0.66221  0.40171  0.25067  Biso   1.000  H 
  H2       1.0000 0.33779  0.90171  0.24933  Biso   1.000  H 
  H3       1.0000 0.33779  0.59829  0.74933  Biso   1.000  H 
  H4       1.0000 0.66221  0.09829  0.75067  Biso   1.000  H 
  H5       1.0000 0.83445  0.22095  0.25553  Biso   1.000  H 
  H6       1.0000 0.16555  0.72095  0.24447  Biso   1.000  H 
  H7       1.0000 0.16555  0.77905  0.74447  Biso   1.000  H 
  H8       1.0000 0.83445  0.27905  0.75553  Biso   1.000  H 
  H9       1.0000 0.38363  0.49323  0.36365  Biso   1.000  H 
  H10      1.0000 0.61637  0.99323  0.13635  Biso   1.000  H 
  H11      1.0000 0.61637  0.50677  0.63635  Biso   1.000  H 
  H12      1.0000 0.38363  0.00677  0.86365  Biso   1.000  H 
  H13      1.0000 0.14426  0.27992  0.30249  Biso   1.000  H 
  H14      1.0000 0.85574  0.77992  0.19751  Biso   1.000  H 
  H15      1.0000 0.85574  0.72008  0.69751  Biso   1.000  H 
  H16      1.0000 0.14426  0.22008  0.80249  Biso   1.000  H 
  H17      1.0000 0.02623  0.82583  0.44448  Biso   1.000  H 
  H18      1.0000 0.97377  0.32583  0.05552  Biso   1.000  H 
  H19      1.0000 0.97377  0.17416  0.55552  Biso   1.000  H 
  H20      1.0000 0.02623  0.67417  0.94448  Biso   1.000  H 
  H21      1.0000 0.96869  0.65599  0.58823  Biso   1.000  H 
  H22      1.0000 0.03131  0.15599  0.91177  Biso   1.000  H 
  H23      1.0000 0.03131  0.34401  0.41177  Biso   1.000  H 
  H24      1.0000 0.96869  0.84401  0.08823  Biso   1.000  H 
  H25      1.0000 0.31207  0.61139  0.61845  Biso   1.000  H 
  H26      1.0000 0.68793  0.11139  0.88155  Biso   1.000  H 
  H27      1.0000 0.68793  0.38861  0.38155  Biso   1.000  H 
  H28      1.0000 0.31207  0.88861  0.11845  Biso   1.000  H 
  H29      1.0000 0.95969  0.93479  0.36306  Biso   1.000  H 
  H30      1.0000 0.04031  0.43479  0.13694  Biso   1.000  H 
  H31      1.0000 0.04031  0.06521  0.63694  Biso   1.000  H 
  H32      1.0000 0.95969  0.56521  0.86306  Biso   1.000  H 
  H33      1.0000 0.51112  0.66037  0.55842  Biso   1.000  H 
  H34      1.0000 0.48888  0.16037  0.94158  Biso   1.000  H 
  H35      1.0000 0.48888  0.33963  0.44158  Biso   1.000  H 
  H36      1.0000 0.51112  0.83963  0.05842  Biso   1.000  H 
  H37      1.0000 0.72306  0.71840  0.29772  Biso   1.000  H 
  H38      1.0000 0.27694  0.21840  0.20228  Biso   1.000  H 
  H39      1.0000 0.27694  0.28160  0.70228  Biso   1.000  H 
  H40      1.0000 0.72306  0.78160  0.79771  Biso   1.000  H 
