data_image0
_cell_length_a       19.9952
_cell_length_b       7.5005
_cell_length_c       16.0442
_cell_angle_alpha    90
_cell_angle_beta     109
_cell_angle_gamma    90

_symmetry_space_group_name_H-M    "P 1"
_symmetry_int_tables_number       1

loop_
  _symmetry_equiv_pos_as_xyz
  'x, y, z'

loop_
  _atom_site_label
  _atom_site_occupancy
  _atom_site_fract_x
  _atom_site_fract_y
  _atom_site_fract_z
  _atom_site_thermal_displace_type
  _atom_site_B_iso_or_equiv
  _atom_site_type_symbol
  Cu1      1.0000 0.19790  0.16049  0.01246  Biso   1.000  Cu
  O1       1.0000 0.20162  0.34158  0.10298  Biso   1.000  O 
  C1       1.0000 0.24676  0.46470  0.12073  Biso   1.000  C 
  O2       1.0000 0.29199  0.48860  0.08313  Biso   1.000  O 
  Cu2      1.0000 0.30210  0.33951  0.98754  Biso   1.000  Cu
  O3       1.0000 0.29838  0.15842  0.89702  Biso   1.000  O 
  C2       1.0000 0.25324  0.03530  0.87927  Biso   1.000  C 
  O4       1.0000 0.20801  0.01140  0.91687  Biso   1.000  O 
  C3       1.0000 0.25225  0.90850  0.80645  Biso   1.000  C 
  H1       1.0000 0.21390  0.93880  0.75430  Biso   1.000  H 
  H2       1.0000 0.24600  0.78900  0.82400  Biso   1.000  H 
  H3       1.0000 0.29620  0.91680  0.79450  Biso   1.000  H 
  O5       1.0000 0.22280  0.46430  0.90171  Biso   1.000  O 
  C4       1.0000 0.15840  0.43050  0.88500  Biso   1.000  C 
  O6       1.0000 0.13346  0.31560  0.92336  Biso   1.000  O 
  C5       1.0000 0.10693  0.53480  0.81236  Biso   1.000  C 
  H4       1.0000 0.09360  0.46590  0.75900  Biso   1.000  H 
  H5       1.0000 0.06560  0.56100  0.82820  Biso   1.000  H 
  H6       1.0000 0.12860  0.64410  0.80340  Biso   1.000  H 
  N1       1.0000 0.37914  0.51860  0.95931  Biso   1.000  N 
  C6       1.0000 0.40999  0.47230  0.90023  Biso   1.000  C 
  H7       1.0000 0.40410  0.35630  0.87860  Biso   1.000  H 
  C7       1.0000 0.45037  0.58870  0.86967  Biso   1.000  C 
  C8       1.0000 0.47971  0.52280  0.80305  Biso   1.000  C 
  N2       1.0000 0.48659  0.35910  0.78540  Biso   1.000  N 
  N3       1.0000 0.51341  0.35910  0.71460  Biso   1.000  N 
  C9       1.0000 0.52029  0.52280  0.69695  Biso   1.000  C 
  O7       1.0000 0.50000  0.63690  0.75000  Biso   1.000  O 
  C10      1.0000 0.54963  0.58870  0.63033  Biso   1.000  C 
  C11      1.0000 0.53977  0.76150  0.59728  Biso   1.000  C 
  H8       1.0000 0.51200  0.84220  0.61540  Biso   1.000  H 
  C12      1.0000 0.57208  0.80990  0.53705  Biso   1.000  C 
  C13      1.0000 0.61210  0.68670  0.51091  Biso   1.000  C 
  H9       1.0000 0.63410  0.72160  0.47070  Biso   1.000  H 
  N4       1.0000 0.62086  0.51860  0.54069  Biso   1.000  N 
  Cu3      1.0000 0.69790  0.33951  0.51246  Biso   1.000  Cu
  O8       1.0000 0.63346  0.18440  0.42336  Biso   1.000  O 
  C14      1.0000 0.65840  0.06950  0.38500  Biso   1.000  C 
  O9       1.0000 0.72280  0.03570  0.40171  Biso   1.000  O 
  Cu4      1.0000 0.80210  0.16049  0.48754  Biso   1.000  Cu
  O10      1.0000 0.79838  0.34158  0.39702  Biso   1.000  O 
  C15      1.0000 0.75324  0.46470  0.37927  Biso   1.000  C 
  O11      1.0000 0.70801  0.48860  0.41687  Biso   1.000  O 
  C16      1.0000 0.75225  0.59150  0.30645  Biso   1.000  C 
  H10      1.0000 0.71390  0.56120  0.25430  Biso   1.000  H 
  H11      1.0000 0.79620  0.58320  0.29450  Biso   1.000  H 
  H12      1.0000 0.74600  0.71100  0.32400  Biso   1.000  H 
  O12      1.0000 0.86654  0.31560  0.57664  Biso   1.000  O 
  C17      1.0000 0.84160  0.43050  0.61500  Biso   1.000  C 
  O13      1.0000 0.77720  0.46430  0.59829  Biso   1.000  O 
  C18      1.0000 0.89307  0.53480  0.68764  Biso   1.000  C 
  H13      1.0000 0.93440  0.56100  0.67180  Biso   1.000  H 
  H14      1.0000 0.87140  0.64410  0.69660  Biso   1.000  H 
  H15      1.0000 0.90640  0.46590  0.74100  Biso   1.000  H 
  O14      1.0000 0.79199  0.01140  0.58313  Biso   1.000  O 
  C19      1.0000 0.74676  0.03530  0.62073  Biso   1.000  C 
  O15      1.0000 0.70162  0.15842  0.60298  Biso   1.000  O 
  C20      1.0000 0.74775  0.90850  0.69355  Biso   1.000  C 
  H16      1.0000 0.70380  0.91680  0.70550  Biso   1.000  H 
  H17      1.0000 0.75400  0.78900  0.67600  Biso   1.000  H 
  H18      1.0000 0.78610  0.93880  0.74570  Biso   1.000  H 
  N5       1.0000 0.87914  0.98140  0.45931  Biso   1.000  N 
  C21      1.0000 0.90999  0.02770  0.40023  Biso   1.000  C 
  H19      1.0000 0.90410  0.14370  0.37860  Biso   1.000  H 
  C22      1.0000 0.95037  0.91130  0.36967  Biso   1.000  C 
  C23      1.0000 0.97971  0.97720  0.30305  Biso   1.000  C 
  C24      1.0000 0.02029  0.97720  0.19695  Biso   1.000  C 
  O16      1.0000 0.00000  0.86310  0.25000  Biso   1.000  O 
  N6       1.0000 0.01341  0.14090  0.21460  Biso   1.000  N 
  N7       1.0000 0.98659  0.14090  0.28540  Biso   1.000  N 
  C25      1.0000 0.04963  0.91130  0.13033  Biso   1.000  C 
  C26      1.0000 0.03977  0.73850  0.09728  Biso   1.000  C 
  C27      1.0000 0.07208  0.69010  0.03705  Biso   1.000  C 
  H20      1.0000 0.06690  0.57500  0.01420  Biso   1.000  H 
  C28      1.0000 0.11210  0.81330  0.01091  Biso   1.000  C 
  N8       1.0000 0.12086  0.98140  0.04069  Biso   1.000  N 
  C29      1.0000 0.09001  0.02770  0.09977  Biso   1.000  C 
  H21      1.0000 0.09590  0.14370  0.12140  Biso   1.000  H 
  H22      1.0000 0.13410  0.77840  0.97070  Biso   1.000  H 
  H23      1.0000 0.01200  0.65780  0.11540  Biso   1.000  H 
  C30      1.0000 0.96023  0.73850  0.40272  Biso   1.000  C 
  H24      1.0000 0.98800  0.65780  0.38460  Biso   1.000  H 
  C31      1.0000 0.92792  0.69010  0.46295  Biso   1.000  C 
  C32      1.0000 0.88790  0.81330  0.48909  Biso   1.000  C 
  H25      1.0000 0.86590  0.77840  0.52930  Biso   1.000  H 
  H26      1.0000 0.93310  0.57500  0.48580  Biso   1.000  H 
  C33      1.0000 0.60693  0.96520  0.31236  Biso   1.000  C 
  H27      1.0000 0.62860  0.85590  0.30340  Biso   1.000  H 
  H28      1.0000 0.56560  0.93900  0.32820  Biso   1.000  H 
  H29      1.0000 0.59360  0.03410  0.25900  Biso   1.000  H 
  C34      1.0000 0.59001  0.47230  0.59977  Biso   1.000  C 
  H30      1.0000 0.59590  0.35630  0.62140  Biso   1.000  H 
  H31      1.0000 0.56690  0.92500  0.51420  Biso   1.000  H 
  C35      1.0000 0.46023  0.76150  0.90272  Biso   1.000  C 
  C36      1.0000 0.42792  0.80990  0.96295  Biso   1.000  C 
  C37      1.0000 0.38790  0.68670  0.98909  Biso   1.000  C 
  H32      1.0000 0.36590  0.72160  0.02930  Biso   1.000  H 
  H33      1.0000 0.43310  0.92500  0.98580  Biso   1.000  H 
  H34      1.0000 0.48800  0.84220  0.88460  Biso   1.000  H 
  O17      1.0000 0.36654  0.18440  0.07664  Biso   1.000  O 
  C38      1.0000 0.34160  0.06950  0.11500  Biso   1.000  C 
  O18      1.0000 0.27720  0.03570  0.09829  Biso   1.000  O 
  C39      1.0000 0.39307  0.96520  0.18764  Biso   1.000  C 
  H35      1.0000 0.37140  0.85590  0.19660  Biso   1.000  H 
  H36      1.0000 0.43440  0.93900  0.17180  Biso   1.000  H 
  H37      1.0000 0.40640  0.03410  0.24100  Biso   1.000  H 
  C40      1.0000 0.24775  0.59150  0.19355  Biso   1.000  C 
  H38      1.0000 0.20380  0.58320  0.20550  Biso   1.000  H 
  H39      1.0000 0.25400  0.71100  0.17600  Biso   1.000  H 
  H40      1.0000 0.28610  0.56120  0.24570  Biso   1.000  H 
