data_image0
_cell_length_a       16.4226
_cell_length_b       16.4226
_cell_length_c       17.1859
_cell_angle_alpha    90
_cell_angle_beta     90
_cell_angle_gamma    90

_symmetry_space_group_name_H-M    "P 1"
_symmetry_int_tables_number       1

loop_
  _symmetry_equiv_pos_as_xyz
  'x, y, z'

loop_
  _atom_site_label
  _atom_site_occupancy
  _atom_site_fract_x
  _atom_site_fract_y
  _atom_site_fract_z
  _atom_site_thermal_displace_type
  _atom_site_B_iso_or_equiv
  _atom_site_type_symbol
  Br1      1.0000 0.88501  0.45171  0.50000  Biso   1.000  Br
  Cu1      1.0000 0.97071  0.58092  0.50000  Biso   1.000  Cu
  N1       1.0000 0.92387  0.65636  0.41438  Biso   1.000  N 
  N2       1.0000 0.85394  0.69899  0.42961  Biso   1.000  N 
  C1       1.0000 0.83614  0.75249  0.37212  Biso   1.000  C 
  C2       1.0000 0.76140  0.80364  0.37344  Biso   1.000  C 
  H1       1.0000 0.75120  0.82470  0.32230  Biso   1.000  H 
  H2       1.0000 0.71590  0.77120  0.38990  Biso   1.000  H 
  H3       1.0000 0.76890  0.84800  0.40910  Biso   1.000  H 
  C3       1.0000 0.89719  0.74449  0.31688  Biso   1.000  C 
  C4       1.0000 0.95012  0.68382  0.34610  Biso   1.000  C 
  C5       1.0000 0.02810  0.65130  0.31400  Biso   1.000  C 
  H4       1.0000 0.05880  0.69500  0.29120  Biso   1.000  H 
  H5       1.0000 0.01650  0.61110  0.27500  Biso   1.000  H 
  H6       1.0000 0.05920  0.62690  0.35510  Biso   1.000  H 
  C6       1.0000 0.90771  0.78965  0.24336  Biso   1.000  C 
  C7       1.0000 0.94224  0.75217  0.17855  Biso   1.000  C 
  C8       1.0000 0.95661  0.79668  0.11212  Biso   1.000  C 
  H7       1.0000 0.98260  0.77080  0.07090  Biso   1.000  H 
  N3       1.0000 0.93558  0.87460  0.10310  Biso   1.000  N 
  C9       1.0000 0.90075  0.91046  0.16475  Biso   1.000  C 
  H8       1.0000 0.88470  0.96450  0.16010  Biso   1.000  H 
  C10      1.0000 0.88742  0.87139  0.23492  Biso   1.000  C 
  H9       1.0000 0.86490  0.89980  0.27650  Biso   1.000  H 
  Cu2      1.0000 0.95932  0.93116  0.00000  Biso   1.000  Cu
  Br2      1.0000 0.88560  0.06313  0.00000  Biso   1.000  Br
  Cu3      1.0000 0.04068  0.06884  0.00000  Biso   1.000  Cu
  N4       1.0000 0.06442  0.12540  0.10310  Biso   1.000  N 
  C11      1.0000 0.04339  0.20332  0.11212  Biso   1.000  C 
  H10      1.0000 0.01740  0.22920  0.07090  Biso   1.000  H 
  C12      1.0000 0.05776  0.24783  0.17855  Biso   1.000  C 
  H11      1.0000 0.04440  0.30280  0.18020  Biso   1.000  H 
  C13      1.0000 0.09229  0.21035  0.24336  Biso   1.000  C 
  C14      1.0000 0.10281  0.25551  0.31688  Biso   1.000  C 
  C15      1.0000 0.16386  0.24751  0.37212  Biso   1.000  C 
  C16      1.0000 0.23860  0.19636  0.37344  Biso   1.000  C 
  H12      1.0000 0.23110  0.15200  0.40910  Biso   1.000  H 
  H13      1.0000 0.24880  0.17530  0.32230  Biso   1.000  H 
  H14      1.0000 0.28410  0.22880  0.38990  Biso   1.000  H 
  N5       1.0000 0.14606  0.30101  0.42961  Biso   1.000  N 
  C17      1.0000 0.19040  0.32090  0.50000  Biso   1.000  C 
  H15      1.0000 0.24170  0.29160  0.50000  Biso   1.000  H 
  H16      1.0000 0.20270  0.37870  0.50000  Biso   1.000  H 
  N6       1.0000 0.14606  0.30101  0.57039  Biso   1.000  N 
  C18      1.0000 0.16386  0.24751  0.62788  Biso   1.000  C 
  C19      1.0000 0.23860  0.19636  0.62656  Biso   1.000  C 
  H17      1.0000 0.23110  0.15200  0.59090  Biso   1.000  H 
  H18      1.0000 0.24880  0.17530  0.67770  Biso   1.000  H 
  H19      1.0000 0.28410  0.22880  0.61010  Biso   1.000  H 
  C20      1.0000 0.10281  0.25551  0.68312  Biso   1.000  C 
  C21      1.0000 0.04988  0.31618  0.65390  Biso   1.000  C 
  N7       1.0000 0.07613  0.34364  0.58562  Biso   1.000  N 
  Cu4      1.0000 0.02929  0.41908  0.50000  Biso   1.000  Cu
  N8       1.0000 0.07613  0.34364  0.41438  Biso   1.000  N 
  C22      1.0000 0.04988  0.31618  0.34610  Biso   1.000  C 
  C23      1.0000 0.97190  0.34870  0.31400  Biso   1.000  C 
  H20      1.0000 0.94120  0.30500  0.29120  Biso   1.000  H 
  H21      1.0000 0.94080  0.37310  0.35510  Biso   1.000  H 
  H22      1.0000 0.98350  0.38890  0.27500  Biso   1.000  H 
  Br3      1.0000 0.11499  0.54829  0.50000  Biso   1.000  Br
  C24      1.0000 0.97190  0.34870  0.68600  Biso   1.000  C 
  H23      1.0000 0.94080  0.37310  0.64490  Biso   1.000  H 
  H24      1.0000 0.98350  0.38890  0.72500  Biso   1.000  H 
  H25      1.0000 0.94120  0.30500  0.70880  Biso   1.000  H 
  C25      1.0000 0.09229  0.21035  0.75664  Biso   1.000  C 
  C26      1.0000 0.05776  0.24783  0.82145  Biso   1.000  C 
  C27      1.0000 0.04339  0.20332  0.88788  Biso   1.000  C 
  H26      1.0000 0.01740  0.22920  0.92910  Biso   1.000  H 
  N9       1.0000 0.06442  0.12540  0.89690  Biso   1.000  N 
  C28      1.0000 0.09925  0.08954  0.83525  Biso   1.000  C 
  H27      1.0000 0.11530  0.03550  0.83990  Biso   1.000  H 
  C29      1.0000 0.11258  0.12861  0.76508  Biso   1.000  C 
  H28      1.0000 0.13510  0.10020  0.72350  Biso   1.000  H 
  H29      1.0000 0.04440  0.30280  0.81980  Biso   1.000  H 
  C30      1.0000 0.11258  0.12861  0.23492  Biso   1.000  C 
  H30      1.0000 0.13510  0.10020  0.27650  Biso   1.000  H 
  C31      1.0000 0.09925  0.08954  0.16475  Biso   1.000  C 
  H31      1.0000 0.11530  0.03550  0.16010  Biso   1.000  H 
  Br4      1.0000 0.11440  0.93687  0.00000  Biso   1.000  Br
  N10      1.0000 0.93558  0.87460  0.89690  Biso   1.000  N 
  C32      1.0000 0.95661  0.79668  0.88788  Biso   1.000  C 
  H32      1.0000 0.98260  0.77080  0.92910  Biso   1.000  H 
  C33      1.0000 0.94224  0.75217  0.82145  Biso   1.000  C 
  H33      1.0000 0.95560  0.69720  0.81980  Biso   1.000  H 
  C34      1.0000 0.90771  0.78965  0.75664  Biso   1.000  C 
  C35      1.0000 0.89719  0.74449  0.68312  Biso   1.000  C 
  C36      1.0000 0.95012  0.68382  0.65390  Biso   1.000  C 
  C37      1.0000 0.02810  0.65130  0.68600  Biso   1.000  C 
  H34      1.0000 0.05880  0.69500  0.70880  Biso   1.000  H 
  H35      1.0000 0.05920  0.62690  0.64490  Biso   1.000  H 
  H36      1.0000 0.01650  0.61110  0.72500  Biso   1.000  H 
  N11      1.0000 0.92387  0.65636  0.58562  Biso   1.000  N 
  N12      1.0000 0.85394  0.69899  0.57039  Biso   1.000  N 
  C38      1.0000 0.80960  0.67910  0.50000  Biso   1.000  C 
  H37      1.0000 0.79730  0.62130  0.50000  Biso   1.000  H 
  H38      1.0000 0.75830  0.70840  0.50000  Biso   1.000  H 
  C39      1.0000 0.83614  0.75249  0.62788  Biso   1.000  C 
  C40      1.0000 0.76140  0.80364  0.62656  Biso   1.000  C 
  H39      1.0000 0.71590  0.77120  0.61010  Biso   1.000  H 
  H40      1.0000 0.76890  0.84800  0.59090  Biso   1.000  H 
  H41      1.0000 0.75120  0.82470  0.67770  Biso   1.000  H 
  C41      1.0000 0.88742  0.87139  0.76508  Biso   1.000  C 
  H42      1.0000 0.86490  0.89980  0.72350  Biso   1.000  H 
  C42      1.0000 0.90075  0.91046  0.83525  Biso   1.000  C 
  H43      1.0000 0.88470  0.96450  0.83990  Biso   1.000  H 
  H44      1.0000 0.95560  0.69720  0.18020  Biso   1.000  H 
