data_image0
_cell_length_a       16.3105
_cell_length_b       16.5008
_cell_length_c       8.0927
_cell_angle_alpha    90
_cell_angle_beta     90
_cell_angle_gamma    90

_symmetry_space_group_name_H-M    "P 1"
_symmetry_int_tables_number       1

loop_
  _symmetry_equiv_pos_as_xyz
  'x, y, z'

loop_
  _atom_site_label
  _atom_site_occupancy
  _atom_site_fract_x
  _atom_site_fract_y
  _atom_site_fract_z
  _atom_site_thermal_displace_type
  _atom_site_B_iso_or_equiv
  _atom_site_type_symbol
  Zn1      1.0000 0.45199  0.25973  0.07576  Biso   1.000  Zn
  O1       1.0000 0.43196  0.35931  0.20850  Biso   1.000  O 
  C1       1.0000 0.38600  0.34450  0.33400  Biso   1.000  C 
  C2       1.0000 0.38090  0.40880  0.46940  Biso   1.000  C 
  H1       1.0000 0.32690  0.40570  0.52220  Biso   1.000  H 
  O2       1.0000 0.39394  0.48993  0.40970  Biso   1.000  O 
  C3       1.0000 0.33010  0.52720  0.33260  Biso   1.000  C 
  C4       1.0000 0.25910  0.48800  0.28110  Biso   1.000  C 
  H2       1.0000 0.25310  0.43250  0.29700  Biso   1.000  H 
  C5       1.0000 0.19720  0.53260  0.20570  Biso   1.000  C 
  C6       1.0000 0.20450  0.61500  0.18160  Biso   1.000  C 
  C7       1.0000 0.27670  0.65370  0.23010  Biso   1.000  C 
  H3       1.0000 0.28330  0.70880  0.21060  Biso   1.000  H 
  C8       1.0000 0.33880  0.61030  0.30730  Biso   1.000  C 
  H4       1.0000 0.38620  0.63670  0.34210  Biso   1.000  H 
  C9       1.0000 0.13580  0.65900  0.09910  Biso   1.000  C 
  O3       1.0000 0.15030  0.72980  0.04420  Biso   1.000  O 
  Zn2      1.0000 0.04801  0.75973  0.92424  Biso   1.000  Zn
  O4       1.0000 0.06804  0.85931  0.79150  Biso   1.000  O 
  C10      1.0000 0.11400  0.84450  0.66600  Biso   1.000  C 
  C11      1.0000 0.11910  0.90880  0.53060  Biso   1.000  C 
  H5       1.0000 0.17310  0.90570  0.47780  Biso   1.000  H 
  O5       1.0000 0.10606  0.98993  0.59030  Biso   1.000  O 
  C12      1.0000 0.16990  0.02720  0.66740  Biso   1.000  C 
  C13      1.0000 0.16120  0.11030  0.69270  Biso   1.000  C 
  H6       1.0000 0.11380  0.13670  0.65790  Biso   1.000  H 
  C14      1.0000 0.22330  0.15370  0.76990  Biso   1.000  C 
  H7       1.0000 0.21670  0.20880  0.78940  Biso   1.000  H 
  C15      1.0000 0.29550  0.11500  0.81840  Biso   1.000  C 
  C16      1.0000 0.30280  0.03260  0.79430  Biso   1.000  C 
  H8       1.0000 0.35010  0.00620  0.82930  Biso   1.000  H 
  C17      1.0000 0.24090  0.98800  0.71890  Biso   1.000  C 
  H9       1.0000 0.24690  0.93250  0.70300  Biso   1.000  H 
  C18      1.0000 0.36420  0.15900  0.90090  Biso   1.000  C 
  O6       1.0000 0.34970  0.22980  0.95580  Biso   1.000  O 
  O7       1.0000 0.43350  0.12680  0.91580  Biso   1.000  O 
  C19      1.0000 0.05380  0.89280  0.40270  Biso   1.000  C 
  H10      1.0000 0.00070  0.89780  0.45260  Biso   1.000  H 
  H11      1.0000 0.05890  0.93140  0.31450  Biso   1.000  H 
  H12      1.0000 0.06030  0.83900  0.35950  Biso   1.000  H 
  O8       1.0000 0.14887  0.77979  0.64220  Biso   1.000  O 
  N1       1.0000 0.95758  0.79057  0.08770  Biso   1.000  N 
  C20      1.0000 0.91960  0.74120  0.20230  Biso   1.000  C 
  H13      1.0000 0.93730  0.68950  0.23140  Biso   1.000  H 
  C21      1.0000 0.85380  0.77820  0.26540  Biso   1.000  C 
  H14      1.0000 0.81720  0.75720  0.34250  Biso   1.000  H 
  N2       1.0000 0.85086  0.85464  0.19280  Biso   1.000  N 
  C22      1.0000 0.79108  0.91640  0.22000  Biso   1.000  C 
  C23      1.0000 0.72090  0.89910  0.30780  Biso   1.000  C 
  C24      1.0000 0.66250  0.95860  0.33250  Biso   1.000  C 
  H15      1.0000 0.61520  0.94720  0.39230  Biso   1.000  H 
  C25      1.0000 0.67480  0.03510  0.26810  Biso   1.000  C 
  N3       1.0000 0.61223  0.09523  0.29070  Biso   1.000  N 
  C26      1.0000 0.58140  0.14380  0.17280  Biso   1.000  C 
  H16      1.0000 0.60050  0.14540  0.06450  Biso   1.000  H 
  N4       1.0000 0.52115  0.18867  0.22920  Biso   1.000  N 
  C27      1.0000 0.51270  0.16850  0.39200  Biso   1.000  C 
  H17      1.0000 0.47520  0.19150  0.46470  Biso   1.000  H 
  C28      1.0000 0.56750  0.10960  0.43130  Biso   1.000  C 
  H18      1.0000 0.57350  0.08410  0.53310  Biso   1.000  H 
  C29      1.0000 0.74580  0.05320  0.18080  Biso   1.000  C 
  H19      1.0000 0.75430  0.10520  0.13950  Biso   1.000  H 
  C30      1.0000 0.80340  0.99350  0.15620  Biso   1.000  C 
  H20      1.0000 0.85070  0.00490  0.09650  Biso   1.000  H 
  H21      1.0000 0.71270  0.84730  0.35050  Biso   1.000  H 
  C31      1.0000 0.91488  0.85810  0.08680  Biso   1.000  C 
  H22      1.0000 0.92720  0.90270  0.02120  Biso   1.000  H 
  N5       1.0000 0.97885  0.68867  0.77080  Biso   1.000  N 
  C32      1.0000 0.98730  0.66850  0.60800  Biso   1.000  C 
  H23      1.0000 0.02480  0.69150  0.53530  Biso   1.000  H 
  C33      1.0000 0.93250  0.60960  0.56870  Biso   1.000  C 
  H24      1.0000 0.92650  0.58410  0.46690  Biso   1.000  H 
  N6       1.0000 0.88777  0.59523  0.70930  Biso   1.000  N 
  C34      1.0000 0.82520  0.53510  0.73190  Biso   1.000  C 
  C35      1.0000 0.83750  0.45860  0.66750  Biso   1.000  C 
  H25      1.0000 0.88480  0.44720  0.60770  Biso   1.000  H 
  C36      1.0000 0.77910  0.39910  0.69220  Biso   1.000  C 
  H26      1.0000 0.78730  0.34730  0.64950  Biso   1.000  H 
  C37      1.0000 0.70892  0.41640  0.78000  Biso   1.000  C 
  N7       1.0000 0.64914  0.35464  0.80720  Biso   1.000  N 
  C38      1.0000 0.64620  0.27820  0.73460  Biso   1.000  C 
  H27      1.0000 0.68280  0.25720  0.65750  Biso   1.000  H 
  C39      1.0000 0.58040  0.24120  0.79770  Biso   1.000  C 
  H28      1.0000 0.56270  0.18950  0.76860  Biso   1.000  H 
  N8       1.0000 0.54242  0.29057  0.91230  Biso   1.000  N 
  C40      1.0000 0.58512  0.35810  0.91320  Biso   1.000  C 
  H29      1.0000 0.57280  0.40270  0.97880  Biso   1.000  H 
  C41      1.0000 0.69660  0.49350  0.84380  Biso   1.000  C 
  H30      1.0000 0.64930  0.50490  0.90350  Biso   1.000  H 
  C42      1.0000 0.75420  0.55320  0.81920  Biso   1.000  C 
  H31      1.0000 0.74570  0.60520  0.86050  Biso   1.000  H 
  C43      1.0000 0.91860  0.64380  0.82720  Biso   1.000  C 
  H32      1.0000 0.89950  0.64540  0.93550  Biso   1.000  H 
  O9       1.0000 0.06650  0.62680  0.08420  Biso   1.000  O 
  H33      1.0000 0.14990  0.50620  0.17070  Biso   1.000  H 
  C44      1.0000 0.44620  0.39280  0.59730  Biso   1.000  C 
  H34      1.0000 0.43970  0.33900  0.64050  Biso   1.000  H 
  H35      1.0000 0.44110  0.43140  0.68550  Biso   1.000  H 
  H36      1.0000 0.49930  0.39780  0.54740  Biso   1.000  H 
  O10      1.0000 0.35113  0.27979  0.35780  Biso   1.000  O 
