data_image0
_cell_length_a       9.834
_cell_length_b       5.5508
_cell_length_c       14.372
_cell_angle_alpha    90
_cell_angle_beta     104.91
_cell_angle_gamma    90

_symmetry_space_group_name_H-M    "P 1"
_symmetry_int_tables_number       1

loop_
  _symmetry_equiv_pos_as_xyz
  'x, y, z'

loop_
  _atom_site_label
  _atom_site_occupancy
  _atom_site_fract_x
  _atom_site_fract_y
  _atom_site_fract_z
  _atom_site_thermal_displace_type
  _atom_site_B_iso_or_equiv
  _atom_site_type_symbol
  Pb1      1.0000 0.88441  0.73262  0.88143  Biso   1.000  Pb
  N1       1.0000 0.64380  0.57050  0.86790  Biso   1.000  N 
  C1       1.0000 0.52580  0.68350  0.81920  Biso   1.000  C 
  C2       1.0000 0.39310  0.60450  0.82230  Biso   1.000  C 
  H1       1.0000 0.31280  0.68770  0.78990  Biso   1.000  H 
  C3       1.0000 0.38340  0.39750  0.87500  Biso   1.000  C 
  H2       1.0000 0.29630  0.34300  0.88030  Biso   1.000  H 
  C4       1.0000 0.50440  0.27490  0.91910  Biso   1.000  C 
  H3       1.0000 0.49930  0.13010  0.95050  Biso   1.000  H 
  C5       1.0000 0.63350  0.36830  0.91630  Biso   1.000  C 
  C6       1.0000 0.77010  0.24190  0.96330  Biso   1.000  C 
  O1       1.0000 0.76510  0.03910  0.99890  Biso   1.000  O 
  O2       1.0000 0.88400  0.35340  0.96110  Biso   1.000  O 
  C7       1.0000 0.54620  0.89480  0.75790  Biso   1.000  C 
  O3       1.0000 0.44060  0.99040  0.70310  Biso   1.000  O 
  Pb2      1.0000 0.61559  0.23262  0.61857  Biso   1.000  Pb
  O4       1.0000 0.82660  0.45820  0.73760  Biso   1.000  O 
  C8       1.0000 0.95380  0.39480  0.74210  Biso   1.000  C 
  C9       1.0000 0.97420  0.18350  0.68080  Biso   1.000  C 
  N2       1.0000 0.85620  0.07050  0.63210  Biso   1.000  N 
  C10      1.0000 0.86650  0.86830  0.58370  Biso   1.000  C 
  C11      1.0000 0.72990  0.74190  0.53670  Biso   1.000  C 
  O5       1.0000 0.73490  0.53910  0.50110  Biso   1.000  O 
  O6       1.0000 0.61600  0.85340  0.53890  Biso   1.000  O 
  C12      1.0000 0.99560  0.77490  0.58090  Biso   1.000  C 
  C13      1.0000 0.11660  0.89750  0.62500  Biso   1.000  C 
  H4       1.0000 0.20370  0.84300  0.61970  Biso   1.000  H 
  C14      1.0000 0.10690  0.10450  0.67770  Biso   1.000  C 
  H5       1.0000 0.18720  0.18770  0.71010  Biso   1.000  H 
  H6       1.0000 0.00070  0.63010  0.54950  Biso   1.000  H 
  O7       1.0000 0.05940  0.49040  0.79690  Biso   1.000  O 
  O8       1.0000 0.67340  0.95820  0.76240  Biso   1.000  O 
