data_image0
_cell_length_a       31.644
_cell_length_b       10.99
_cell_length_c       33.683
_cell_angle_alpha    90
_cell_angle_beta     116.373
_cell_angle_gamma    90

_symmetry_space_group_name_H-M    "P 1"
_symmetry_int_tables_number       1

loop_
  _symmetry_equiv_pos_as_xyz
  'x, y, z'

loop_
  _atom_site_label
  _atom_site_occupancy
  _atom_site_fract_x
  _atom_site_fract_y
  _atom_site_fract_z
  _atom_site_thermal_displace_type
  _atom_site_B_iso_or_equiv
  _atom_site_type_symbol
  Rh1      1.0000 0.50606  0.00720  0.04380  Biso   1.000  Rh
  C1       1.0000 0.44337  0.06269  0.01845  Biso   1.000  C 
  O1       1.0000 0.40636  0.10000  0.00457  Biso   1.000  O 
  Rh2      1.0000 0.49946  0.00754  0.12418  Biso   1.000  Rh
  O2       1.0000 0.45543  0.14840  0.10914  Biso   1.000  O 
  C2       1.0000 0.41036  0.11910  0.09192  Biso   1.000  C 
  C3       1.0000 0.37429  0.20733  0.08090  Biso   1.000  C 
  C4       1.0000 0.38239  0.34574  0.07932  Biso   1.000  C 
  C5       1.0000 0.37437  0.41490  0.11480  Biso   1.000  C 
  H1       1.0000 0.39710  0.38990  0.14340  Biso   1.000  H 
  H2       1.0000 0.34350  0.39730  0.11180  Biso   1.000  H 
  H3       1.0000 0.37720  0.49970  0.11150  Biso   1.000  H 
  C6       1.0000 0.43239  0.37910  0.08616  Biso   1.000  C 
  H4       1.0000 0.45480  0.35420  0.11500  Biso   1.000  H 
  H5       1.0000 0.43900  0.33860  0.06460  Biso   1.000  H 
  H6       1.0000 0.43470  0.46440  0.08340  Biso   1.000  H 
  C7       1.0000 0.34963  0.39079  0.03211  Biso   1.000  C 
  H7       1.0000 0.35770  0.35120  0.01130  Biso   1.000  H 
  H8       1.0000 0.31770  0.37270  0.02530  Biso   1.000  H 
  H9       1.0000 0.35310  0.47620  0.03040  Biso   1.000  H 
  C8       1.0000 0.32989  0.15694  0.06924  Biso   1.000  C 
  Cl1      1.0000 0.28281  0.24755  0.06334  Biso   1.000  Cl
  C9       1.0000 0.32017  0.03045  0.06165  Biso   1.000  C 
  Cl2      1.0000 0.26329  0.98568  0.04954  Biso   1.000  Cl
  C10      1.0000 0.35370  0.94529  0.06415  Biso   1.000  C 
  C11      1.0000 0.34055  0.81609  0.04432  Biso   1.000  C 
  C12      1.0000 0.32616  0.73560  0.07361  Biso   1.000  C 
  H10      1.0000 0.31590  0.65850  0.06010  Biso   1.000  H 
  H11      1.0000 0.30110  0.77370  0.07750  Biso   1.000  H 
  H12      1.0000 0.35240  0.72520  0.10190  Biso   1.000  H 
  C13      1.0000 0.38088  0.75370  0.03826  Biso   1.000  C 
  H13      1.0000 0.37080  0.67610  0.02490  Biso   1.000  H 
  H14      1.0000 0.40740  0.74360  0.06630  Biso   1.000  H 
  H15      1.0000 0.38970  0.80240  0.01980  Biso   1.000  H 
  C14      1.0000 0.30105  0.82490  0.99621  Biso   1.000  C 
  H16      1.0000 0.31180  0.87190  0.97870  Biso   1.000  H 
  H17      1.0000 0.29270  0.74580  0.98380  Biso   1.000  H 
  H18      1.0000 0.27400  0.86320  0.99610  Biso   1.000  H 
  C15      1.0000 0.40039  0.99140  0.08407  Biso   1.000  C 
  O3       1.0000 0.43761  0.91986  0.09658  Biso   1.000  O 
  C16      1.0000 0.55305  0.10820  0.14809  Biso   1.000  C 
  O4       1.0000 0.58389  0.17361  0.16121  Biso   1.000  O 
  C17      1.0000 0.53665  0.86783  0.13588  Biso   1.000  C 
  O5       1.0000 0.55786  0.78115  0.14123  Biso   1.000  O 
  Rh3      1.0000 0.50438  0.98789  0.20954  Biso   1.000  Rh
  C18      1.0000 0.44265  0.92653  0.18426  Biso   1.000  C 
  O6       1.0000 0.40563  0.88809  0.17008  Biso   1.000  O 
  Rh4      1.0000 0.49562  0.98789  0.29046  Biso   1.000  Rh
  O7       1.0000 0.46400  0.82465  0.27737  Biso   1.000  O 
  C19      1.0000 0.41780  0.82903  0.26120  Biso   1.000  C 
  C20      1.0000 0.39035  0.72100  0.25388  Biso   1.000  C 
  C21      1.0000 0.34414  0.74470  0.24572  Biso   1.000  C 
  C22      1.0000 0.32310  0.86340  0.23451  Biso   1.000  C 
  C23      1.0000 0.34769  0.96720  0.23295  Biso   1.000  C 
  C24      1.0000 0.39719  0.94818  0.25211  Biso   1.000  C 
  O8       1.0000 0.42748  0.03802  0.26197  Biso   1.000  O 
  C25      1.0000 0.32434  0.09050  0.21248  Biso   1.000  C 
  C26      1.0000 0.35732  0.17390  0.20313  Biso   1.000  C 
  H19      1.0000 0.34160  0.24840  0.19060  Biso   1.000  H 
  H20      1.0000 0.36600  0.13540  0.18230  Biso   1.000  H 
  H21      1.0000 0.38480  0.18990  0.22960  Biso   1.000  H 
  C27      1.0000 0.28223  0.07140  0.16715  Biso   1.000  C 
  H22      1.0000 0.26790  0.14800  0.15540  Biso   1.000  H 
  H23      1.0000 0.29250  0.03490  0.14740  Biso   1.000  H 
  H24      1.0000 0.25960  0.02020  0.17020  Biso   1.000  H 
  C28      1.0000 0.30866  0.15670  0.24381  Biso   1.000  C 
  H25      1.0000 0.33540  0.17580  0.27080  Biso   1.000  H 
  H26      1.0000 0.29230  0.22910  0.23040  Biso   1.000  H 
  H27      1.0000 0.28810  0.10490  0.25020  Biso   1.000  H 
  Cl3      1.0000 0.26412  0.87232  0.22291  Biso   1.000  Cl
  Cl4      1.0000 0.30979  0.63064  0.25190  Biso   1.000  Cl
  C29      1.0000 0.41423  0.59770  0.25411  Biso   1.000  C 
  C30      1.0000 0.38200  0.48690  0.23879  Biso   1.000  C 
  H28      1.0000 0.35760  0.50020  0.20960  Biso   1.000  H 
  H29      1.0000 0.36760  0.47380  0.25820  Biso   1.000  H 
  H30      1.0000 0.39930  0.41650  0.23890  Biso   1.000  H 
  C31      1.0000 0.45435  0.56760  0.30045  Biso   1.000  C 
  H31      1.0000 0.47160  0.49830  0.29870  Biso   1.000  H 
  H32      1.0000 0.47550  0.63510  0.31120  Biso   1.000  H 
  H33      1.0000 0.44160  0.55120  0.32070  Biso   1.000  H 
  C32      1.0000 0.43540  0.60960  0.22043  Biso   1.000  C 
  H34      1.0000 0.41070  0.62140  0.19130  Biso   1.000  H 
  H35      1.0000 0.45230  0.53750  0.22080  Biso   1.000  H 
  H36      1.0000 0.45640  0.67720  0.22810  Biso   1.000  H 
  C33      1.0000 0.55735  0.92653  0.31574  Biso   1.000  C 
  O9       1.0000 0.59437  0.88809  0.32992  Biso   1.000  O 
  Rh5      1.0000 0.50053  0.00754  0.37582  Biso   1.000  Rh
  C34      1.0000 0.44695  0.10820  0.35191  Biso   1.000  C 
  O10      1.0000 0.41611  0.17361  0.33879  Biso   1.000  O 
  O11      1.0000 0.54457  0.14840  0.39086  Biso   1.000  O 
  C35      1.0000 0.58964  0.11910  0.40808  Biso   1.000  C 
  C36      1.0000 0.62571  0.20733  0.41910  Biso   1.000  C 
  C37      1.0000 0.61761  0.34574  0.42068  Biso   1.000  C 
  C38      1.0000 0.62563  0.41490  0.38520  Biso   1.000  C 
  H37      1.0000 0.60290  0.38990  0.35660  Biso   1.000  H 
  H38      1.0000 0.65650  0.39730  0.38820  Biso   1.000  H 
  H39      1.0000 0.62280  0.49970  0.38850  Biso   1.000  H 
  C39      1.0000 0.56761  0.37910  0.41384  Biso   1.000  C 
  H40      1.0000 0.54520  0.35420  0.38500  Biso   1.000  H 
  H41      1.0000 0.56100  0.33860  0.43540  Biso   1.000  H 
  H42      1.0000 0.56530  0.46440  0.41660  Biso   1.000  H 
  C40      1.0000 0.65037  0.39079  0.46789  Biso   1.000  C 
  H43      1.0000 0.64230  0.35120  0.48870  Biso   1.000  H 
  H44      1.0000 0.68230  0.37270  0.47470  Biso   1.000  H 
  H45      1.0000 0.64690  0.47620  0.46960  Biso   1.000  H 
  C41      1.0000 0.67011  0.15694  0.43076  Biso   1.000  C 
  Cl5      1.0000 0.71719  0.24755  0.43666  Biso   1.000  Cl
  C42      1.0000 0.67983  0.03045  0.43835  Biso   1.000  C 
  C43      1.0000 0.64630  0.94529  0.43585  Biso   1.000  C 
  C44      1.0000 0.65945  0.81609  0.45568  Biso   1.000  C 
  C45      1.0000 0.61912  0.75370  0.46174  Biso   1.000  C 
  H46      1.0000 0.61030  0.80240  0.48020  Biso   1.000  H 
  H47      1.0000 0.59260  0.74360  0.43370  Biso   1.000  H 
  H48      1.0000 0.62920  0.67610  0.47510  Biso   1.000  H 
  C46      1.0000 0.69895  0.82490  0.50379  Biso   1.000  C 
  H49      1.0000 0.68820  0.87190  0.52130  Biso   1.000  H 
  H50      1.0000 0.70730  0.74580  0.51620  Biso   1.000  H 
  H51      1.0000 0.72600  0.86320  0.50390  Biso   1.000  H 
  C47      1.0000 0.67384  0.73560  0.42639  Biso   1.000  C 
  H52      1.0000 0.69890  0.77370  0.42250  Biso   1.000  H 
  H53      1.0000 0.68410  0.65850  0.43990  Biso   1.000  H 
  H54      1.0000 0.64760  0.72520  0.39810  Biso   1.000  H 
  C48      1.0000 0.59961  0.99140  0.41593  Biso   1.000  C 
  O12      1.0000 0.56239  0.91986  0.40342  Biso   1.000  O 
  Cl6      1.0000 0.73671  0.98568  0.45046  Biso   1.000  Cl
  C49      1.0000 0.46335  0.86783  0.36412  Biso   1.000  C 
  O13      1.0000 0.44214  0.78115  0.35877  Biso   1.000  O 
  Rh6      1.0000 0.49395  0.00720  0.45620  Biso   1.000  Rh
  O14      1.0000 0.46563  0.17369  0.44605  Biso   1.000  O 
  C50      1.0000 0.41918  0.17594  0.42937  Biso   1.000  C 
  C51      1.0000 0.39680  0.05865  0.41957  Biso   1.000  C 
  C52      1.0000 0.34721  0.04360  0.40149  Biso   1.000  C 
  C53      1.0000 0.32304  0.15330  0.39758  Biso   1.000  C 
  C54      1.0000 0.34549  0.26900  0.40844  Biso   1.000  C 
  C55      1.0000 0.39348  0.28695  0.42145  Biso   1.000  C 
  C56      1.0000 0.41542  0.41445  0.42395  Biso   1.000  C 
  C57      1.0000 0.38844  0.47840  0.37870  Biso   1.000  C 
  H55      1.0000 0.39210  0.43370  0.35630  Biso   1.000  H 
  H56      1.0000 0.35580  0.48310  0.37160  Biso   1.000  H 
  H57      1.0000 0.40050  0.55850  0.38020  Biso   1.000  H 
  C58      1.0000 0.46708  0.41160  0.43196  Biso   1.000  C 
  H58      1.0000 0.46980  0.36710  0.40910  Biso   1.000  H 
  H59      1.0000 0.47820  0.49240  0.43260  Biso   1.000  H 
  H60      1.0000 0.48600  0.37360  0.45980  Biso   1.000  H 
  C59      1.0000 0.41439  0.49200  0.46178  Biso   1.000  C 
  H61      1.0000 0.43400  0.45570  0.48960  Biso   1.000  H 
  H62      1.0000 0.38300  0.49740  0.45840  Biso   1.000  H 
  H63      1.0000 0.42580  0.57180  0.46090  Biso   1.000  H 
  Cl7      1.0000 0.30951  0.39043  0.40590  Biso   1.000  Cl
  Cl8      1.0000 0.26241  0.15625  0.37765  Biso   1.000  Cl
  C60      1.0000 0.32240  0.91960  0.38671  Biso   1.000  C 
  C61      1.0000 0.29010  0.92400  0.33681  Biso   1.000  C 
  H64      1.0000 0.27270  0.85050  0.32760  Biso   1.000  H 
  H65      1.0000 0.30850  0.93450  0.32110  Biso   1.000  H 
  H66      1.0000 0.26880  0.99070  0.33030  Biso   1.000  H 
  C62      1.0000 0.29457  0.88870  0.41328  Biso   1.000  C 
  H67      1.0000 0.27350  0.95340  0.41060  Biso   1.000  H 
  H68      1.0000 0.27710  0.81590  0.40210  Biso   1.000  H 
  H69      1.0000 0.31590  0.87780  0.44370  Biso   1.000  H 
  C63      1.0000 0.35513  0.81080  0.39377  Biso   1.000  C 
  H70      1.0000 0.33690  0.73880  0.38290  Biso   1.000  H 
  H71      1.0000 0.37360  0.82360  0.37830  Biso   1.000  H 
  H72      1.0000 0.37550  0.80140  0.42450  Biso   1.000  H 
  O15      1.0000 0.42584  0.96453  0.42784  Biso   1.000  O 
  C64      1.0000 0.55663  0.06269  0.48155  Biso   1.000  C 
  O16      1.0000 0.59364  0.10000  0.49543  Biso   1.000  O 
  Rh7      1.0000 0.50606  0.99280  0.54380  Biso   1.000  Rh
  C65      1.0000 0.44337  0.93731  0.51845  Biso   1.000  C 
  O17      1.0000 0.40636  0.90000  0.50457  Biso   1.000  O 
  Rh8      1.0000 0.49946  0.99246  0.62418  Biso   1.000  Rh
  O18      1.0000 0.45543  0.85160  0.60914  Biso   1.000  O 
  C66      1.0000 0.41036  0.88090  0.59192  Biso   1.000  C 
  C67      1.0000 0.37429  0.79267  0.58090  Biso   1.000  C 
  C68      1.0000 0.38239  0.65426  0.57932  Biso   1.000  C 
  C69      1.0000 0.34963  0.60921  0.53211  Biso   1.000  C 
  H73      1.0000 0.31770  0.62730  0.52530  Biso   1.000  H 
  H74      1.0000 0.35310  0.52380  0.53040  Biso   1.000  H 
  H75      1.0000 0.35770  0.64880  0.51130  Biso   1.000  H 
  C70      1.0000 0.43239  0.62090  0.58616  Biso   1.000  C 
  H76      1.0000 0.43470  0.53560  0.58340  Biso   1.000  H 
  H77      1.0000 0.43900  0.66140  0.56460  Biso   1.000  H 
  H78      1.0000 0.45480  0.64580  0.61500  Biso   1.000  H 
  C71      1.0000 0.37437  0.58510  0.61480  Biso   1.000  C 
  H79      1.0000 0.37720  0.50030  0.61150  Biso   1.000  H 
  H80      1.0000 0.34350  0.60270  0.61180  Biso   1.000  H 
  H81      1.0000 0.39710  0.61010  0.64340  Biso   1.000  H 
  C72      1.0000 0.32989  0.84306  0.56924  Biso   1.000  C 
  Cl9      1.0000 0.28281  0.75245  0.56334  Biso   1.000  Cl
  C73      1.0000 0.32017  0.96955  0.56165  Biso   1.000  C 
  Cl10     1.0000 0.26329  0.01432  0.54954  Biso   1.000  Cl
  C74      1.0000 0.35370  0.05471  0.56415  Biso   1.000  C 
  C75      1.0000 0.34055  0.18391  0.54432  Biso   1.000  C 
  C76      1.0000 0.32616  0.26440  0.57361  Biso   1.000  C 
  H82      1.0000 0.31590  0.34150  0.56010  Biso   1.000  H 
  H83      1.0000 0.30110  0.22630  0.57750  Biso   1.000  H 
  H84      1.0000 0.35240  0.27480  0.60190  Biso   1.000  H 
  C77      1.0000 0.30105  0.17510  0.49621  Biso   1.000  C 
  H85      1.0000 0.31180  0.12810  0.47870  Biso   1.000  H 
  H86      1.0000 0.29270  0.25420  0.48380  Biso   1.000  H 
  H87      1.0000 0.27400  0.13680  0.49610  Biso   1.000  H 
  C78      1.0000 0.38088  0.24630  0.53826  Biso   1.000  C 
  H88      1.0000 0.37080  0.32390  0.52490  Biso   1.000  H 
  H89      1.0000 0.40740  0.25640  0.56630  Biso   1.000  H 
  H90      1.0000 0.38970  0.19760  0.51980  Biso   1.000  H 
  C79      1.0000 0.40039  0.00860  0.58407  Biso   1.000  C 
  O19      1.0000 0.43761  0.08014  0.59658  Biso   1.000  O 
  C80      1.0000 0.55305  0.89180  0.64809  Biso   1.000  C 
  O20      1.0000 0.58389  0.82639  0.66121  Biso   1.000  O 
  Rh9      1.0000 0.50438  0.01211  0.70954  Biso   1.000  Rh
  C81      1.0000 0.44265  0.07347  0.68426  Biso   1.000  C 
  O21      1.0000 0.40563  0.11191  0.67008  Biso   1.000  O 
  O22      1.0000 0.53600  0.17535  0.72263  Biso   1.000  O 
  C82      1.0000 0.58220  0.17097  0.73880  Biso   1.000  C 
  C83      1.0000 0.60965  0.27900  0.74612  Biso   1.000  C 
  C84      1.0000 0.58577  0.40230  0.74589  Biso   1.000  C 
  C85      1.0000 0.56460  0.39040  0.77957  Biso   1.000  C 
  H91      1.0000 0.54360  0.32280  0.77190  Biso   1.000  H 
  H92      1.0000 0.58930  0.37860  0.80870  Biso   1.000  H 
  H93      1.0000 0.54770  0.46250  0.77920  Biso   1.000  H 
  C86      1.0000 0.54565  0.43240  0.69955  Biso   1.000  C 
  H94      1.0000 0.52450  0.36490  0.68880  Biso   1.000  H 
  H95      1.0000 0.55840  0.44880  0.67930  Biso   1.000  H 
  H96      1.0000 0.52840  0.50170  0.70130  Biso   1.000  H 
  C87      1.0000 0.61800  0.51310  0.76121  Biso   1.000  C 
  H97      1.0000 0.60070  0.58350  0.76110  Biso   1.000  H 
  H98      1.0000 0.64240  0.49980  0.79040  Biso   1.000  H 
  H99      1.0000 0.63240  0.52620  0.74180  Biso   1.000  H 
  C88      1.0000 0.65586  0.25530  0.75428  Biso   1.000  C 
  C89      1.0000 0.67690  0.13660  0.76549  Biso   1.000  C 
  C90      1.0000 0.65231  0.03280  0.76705  Biso   1.000  C 
  C91      1.0000 0.67566  0.90950  0.78752  Biso   1.000  C 
  C92      1.0000 0.69134  0.84330  0.75619  Biso   1.000  C 
  H100     1.0000 0.66460  0.82420  0.72920  Biso   1.000  H 
  H101     1.0000 0.70770  0.77090  0.76960  Biso   1.000  H 
  H102     1.0000 0.71190  0.89510  0.74980  Biso   1.000  H 
  C93      1.0000 0.64268  0.82610  0.79687  Biso   1.000  C 
  H103     1.0000 0.61520  0.81010  0.77040  Biso   1.000  H 
  H104     1.0000 0.63400  0.86460  0.81770  Biso   1.000  H 
  H105     1.0000 0.65840  0.75160  0.80940  Biso   1.000  H 
  C94      1.0000 0.71777  0.92860  0.83285  Biso   1.000  C 
  H106     1.0000 0.74040  0.97980  0.82980  Biso   1.000  H 
  H107     1.0000 0.70750  0.96510  0.85260  Biso   1.000  H 
  H108     1.0000 0.73210  0.85200  0.84460  Biso   1.000  H 
  C95      1.0000 0.60281  0.05182  0.74789  Biso   1.000  C 
  O23      1.0000 0.57252  0.96198  0.73803  Biso   1.000  O 
  Cl11     1.0000 0.73588  0.12768  0.77709  Biso   1.000  Cl
  Cl12     1.0000 0.69021  0.36936  0.74810  Biso   1.000  Cl
  C96      1.0000 0.48070  0.85248  0.70080  Biso   1.000  C 
  O24      1.0000 0.46860  0.75455  0.69809  Biso   1.000  O 
  Rh10     1.0000 0.49562  0.01211  0.79046  Biso   1.000  Rh
  O25      1.0000 0.46400  0.17535  0.77737  Biso   1.000  O 
  C97      1.0000 0.41780  0.17097  0.76120  Biso   1.000  C 
  C98      1.0000 0.39035  0.27900  0.75388  Biso   1.000  C 
  C99      1.0000 0.41423  0.40230  0.75411  Biso   1.000  C 
  C100     1.0000 0.43540  0.39040  0.72043  Biso   1.000  C 
  H109     1.0000 0.45640  0.32280  0.72810  Biso   1.000  H 
  H110     1.0000 0.41070  0.37860  0.69130  Biso   1.000  H 
  H111     1.0000 0.45230  0.46250  0.72080  Biso   1.000  H 
  C101     1.0000 0.45435  0.43240  0.80045  Biso   1.000  C 
  H112     1.0000 0.47160  0.50170  0.79870  Biso   1.000  H 
  H113     1.0000 0.44160  0.44880  0.82070  Biso   1.000  H 
  H114     1.0000 0.47550  0.36490  0.81120  Biso   1.000  H 
  C102     1.0000 0.38200  0.51310  0.73879  Biso   1.000  C 
  H115     1.0000 0.35760  0.49980  0.70960  Biso   1.000  H 
  H116     1.0000 0.36760  0.52620  0.75820  Biso   1.000  H 
  H117     1.0000 0.39930  0.58350  0.73890  Biso   1.000  H 
  C103     1.0000 0.34414  0.25530  0.74572  Biso   1.000  C 
  C104     1.0000 0.32310  0.13660  0.73451  Biso   1.000  C 
  C105     1.0000 0.34769  0.03280  0.73295  Biso   1.000  C 
  C106     1.0000 0.32434  0.90950  0.71248  Biso   1.000  C 
  C107     1.0000 0.30866  0.84330  0.74381  Biso   1.000  C 
  H118     1.0000 0.29230  0.77090  0.73040  Biso   1.000  H 
  H119     1.0000 0.28810  0.89510  0.75020  Biso   1.000  H 
  H120     1.0000 0.33540  0.82420  0.77080  Biso   1.000  H 
  C108     1.0000 0.35732  0.82610  0.70313  Biso   1.000  C 
  H121     1.0000 0.38480  0.81010  0.72960  Biso   1.000  H 
  H122     1.0000 0.34160  0.75160  0.69060  Biso   1.000  H 
  H123     1.0000 0.36600  0.86460  0.68230  Biso   1.000  H 
  C109     1.0000 0.28223  0.92860  0.66715  Biso   1.000  C 
  H124     1.0000 0.25960  0.97980  0.67020  Biso   1.000  H 
  H125     1.0000 0.26790  0.85200  0.65540  Biso   1.000  H 
  H126     1.0000 0.29250  0.96510  0.64740  Biso   1.000  H 
  C110     1.0000 0.39719  0.05182  0.75211  Biso   1.000  C 
  O26      1.0000 0.42748  0.96198  0.76197  Biso   1.000  O 
  Cl13     1.0000 0.26412  0.12768  0.72291  Biso   1.000  Cl
  Cl14     1.0000 0.30979  0.36936  0.75190  Biso   1.000  Cl
  C111     1.0000 0.55735  0.07347  0.81574  Biso   1.000  C 
  O27      1.0000 0.59437  0.11191  0.82992  Biso   1.000  O 
  C112     1.0000 0.51930  0.85248  0.79920  Biso   1.000  C 
  O28      1.0000 0.53140  0.75455  0.80191  Biso   1.000  O 
  Rh11     1.0000 0.50053  0.99246  0.87582  Biso   1.000  Rh
  C113     1.0000 0.44695  0.89180  0.85191  Biso   1.000  C 
  O29      1.0000 0.41611  0.82639  0.83879  Biso   1.000  O 
  O30      1.0000 0.54457  0.85160  0.89086  Biso   1.000  O 
  C114     1.0000 0.58964  0.88090  0.90808  Biso   1.000  C 
  C115     1.0000 0.62571  0.79267  0.91910  Biso   1.000  C 
  C116     1.0000 0.61761  0.65426  0.92068  Biso   1.000  C 
  C117     1.0000 0.56761  0.62090  0.91384  Biso   1.000  C 
  H127     1.0000 0.56530  0.53560  0.91660  Biso   1.000  H 
  H128     1.0000 0.56100  0.66140  0.93540  Biso   1.000  H 
  H129     1.0000 0.54520  0.64580  0.88500  Biso   1.000  H 
  C118     1.0000 0.65037  0.60921  0.96789  Biso   1.000  C 
  H130     1.0000 0.64690  0.52380  0.96960  Biso   1.000  H 
  H131     1.0000 0.64230  0.64880  0.98870  Biso   1.000  H 
  H132     1.0000 0.68230  0.62730  0.97470  Biso   1.000  H 
  C119     1.0000 0.62563  0.58510  0.88520  Biso   1.000  C 
  H133     1.0000 0.62280  0.50030  0.88850  Biso   1.000  H 
  H134     1.0000 0.60290  0.61010  0.85660  Biso   1.000  H 
  H135     1.0000 0.65650  0.60270  0.88820  Biso   1.000  H 
  C120     1.0000 0.67011  0.84306  0.93076  Biso   1.000  C 
  Cl15     1.0000 0.71719  0.75245  0.93666  Biso   1.000  Cl
  C121     1.0000 0.67983  0.96955  0.93835  Biso   1.000  C 
  Cl16     1.0000 0.73671  0.01432  0.95046  Biso   1.000  Cl
  C122     1.0000 0.64630  0.05471  0.93585  Biso   1.000  C 
  C123     1.0000 0.65945  0.18391  0.95568  Biso   1.000  C 
  C124     1.0000 0.61912  0.24630  0.96174  Biso   1.000  C 
  H136     1.0000 0.61030  0.19760  0.98020  Biso   1.000  H 
  H137     1.0000 0.62920  0.32390  0.97510  Biso   1.000  H 
  H138     1.0000 0.59260  0.25640  0.93370  Biso   1.000  H 
  C125     1.0000 0.67384  0.26440  0.92639  Biso   1.000  C 
  H139     1.0000 0.64760  0.27480  0.89810  Biso   1.000  H 
  H140     1.0000 0.69890  0.22630  0.92250  Biso   1.000  H 
  H141     1.0000 0.68410  0.34150  0.93990  Biso   1.000  H 
  C126     1.0000 0.69895  0.17510  0.00379  Biso   1.000  C 
  H142     1.0000 0.70730  0.25420  0.01620  Biso   1.000  H 
  H143     1.0000 0.72600  0.13680  0.00390  Biso   1.000  H 
  H144     1.0000 0.68820  0.12810  0.02130  Biso   1.000  H 
  C127     1.0000 0.59961  0.00860  0.91593  Biso   1.000  C 
  O31      1.0000 0.56239  0.08014  0.90342  Biso   1.000  O 
  Rh12     1.0000 0.49394  0.99280  0.95620  Biso   1.000  Rh
  O32      1.0000 0.46563  0.82631  0.94605  Biso   1.000  O 
  C128     1.0000 0.41918  0.82406  0.92937  Biso   1.000  C 
  C129     1.0000 0.39348  0.71305  0.92145  Biso   1.000  C 
  C130     1.0000 0.41542  0.58555  0.92395  Biso   1.000  C 
  C131     1.0000 0.38844  0.52160  0.87870  Biso   1.000  C 
  H145     1.0000 0.35580  0.51690  0.87160  Biso   1.000  H 
  H146     1.0000 0.40050  0.44150  0.88020  Biso   1.000  H 
  H147     1.0000 0.39210  0.56630  0.85630  Biso   1.000  H 
  C132     1.0000 0.41439  0.50800  0.96178  Biso   1.000  C 
  H148     1.0000 0.38300  0.50260  0.95840  Biso   1.000  H 
  H149     1.0000 0.42580  0.42820  0.96090  Biso   1.000  H 
  H150     1.0000 0.43400  0.54430  0.98960  Biso   1.000  H 
  C133     1.0000 0.46708  0.58840  0.93196  Biso   1.000  C 
  H151     1.0000 0.47820  0.50760  0.93260  Biso   1.000  H 
  H152     1.0000 0.48600  0.62640  0.95980  Biso   1.000  H 
  H153     1.0000 0.46980  0.63290  0.90910  Biso   1.000  H 
  C134     1.0000 0.34549  0.73100  0.90844  Biso   1.000  C 
  Cl17     1.0000 0.30951  0.60957  0.90590  Biso   1.000  Cl
  C135     1.0000 0.32304  0.84670  0.89758  Biso   1.000  C 
  Cl18     1.0000 0.26241  0.84375  0.87765  Biso   1.000  Cl
  C136     1.0000 0.34721  0.95640  0.90149  Biso   1.000  C 
  C137     1.0000 0.39680  0.94135  0.91957  Biso   1.000  C 
  O33      1.0000 0.42584  0.03547  0.92784  Biso   1.000  O 
  C138     1.0000 0.32240  0.08040  0.88671  Biso   1.000  C 
  C139     1.0000 0.35513  0.18920  0.89377  Biso   1.000  C 
  H154     1.0000 0.37550  0.19860  0.92450  Biso   1.000  H 
  H155     1.0000 0.33690  0.26120  0.88290  Biso   1.000  H 
  H156     1.0000 0.37360  0.17640  0.87830  Biso   1.000  H 
  C140     1.0000 0.29010  0.07600  0.83681  Biso   1.000  C 
  H157     1.0000 0.26880  0.00930  0.83030  Biso   1.000  H 
  H158     1.0000 0.30850  0.06550  0.82110  Biso   1.000  H 
  H159     1.0000 0.27270  0.14950  0.82760  Biso   1.000  H 
  C141     1.0000 0.29457  0.11130  0.91328  Biso   1.000  C 
  H160     1.0000 0.31590  0.12220  0.94370  Biso   1.000  H 
  H161     1.0000 0.27350  0.04660  0.91060  Biso   1.000  H 
  H162     1.0000 0.27710  0.18410  0.90210  Biso   1.000  H 
  C142     1.0000 0.55663  0.93731  0.98155  Biso   1.000  C 
  O34      1.0000 0.59364  0.90000  0.99543  Biso   1.000  O 
  C143     1.0000 0.51206  0.15837  0.96255  Biso   1.000  C 
  O35      1.0000 0.51842  0.25967  0.96321  Biso   1.000  O 
  C144     1.0000 0.46335  0.13217  0.86412  Biso   1.000  C 
  O36      1.0000 0.44214  0.21885  0.85877  Biso   1.000  O 
  C145     1.0000 0.53665  0.13217  0.63588  Biso   1.000  C 
  O37      1.0000 0.55786  0.21885  0.64123  Biso   1.000  O 
  O38      1.0000 0.53437  0.82631  0.55395  Biso   1.000  O 
  C146     1.0000 0.58082  0.82406  0.57063  Biso   1.000  C 
  C147     1.0000 0.60320  0.94135  0.58043  Biso   1.000  C 
  C148     1.0000 0.65279  0.95640  0.59851  Biso   1.000  C 
  C149     1.0000 0.67696  0.84670  0.60242  Biso   1.000  C 
  C150     1.0000 0.65451  0.73100  0.59156  Biso   1.000  C 
  C151     1.0000 0.60652  0.71305  0.57855  Biso   1.000  C 
  C152     1.0000 0.58458  0.58555  0.57605  Biso   1.000  C 
  C153     1.0000 0.53292  0.58840  0.56804  Biso   1.000  C 
  H163     1.0000 0.52180  0.50760  0.56740  Biso   1.000  H 
  H164     1.0000 0.53020  0.63290  0.59090  Biso   1.000  H 
  H165     1.0000 0.51400  0.62640  0.54020  Biso   1.000  H 
  C154     1.0000 0.58561  0.50800  0.53822  Biso   1.000  C 
  H166     1.0000 0.61700  0.50260  0.54160  Biso   1.000  H 
  H167     1.0000 0.57420  0.42820  0.53910  Biso   1.000  H 
  H168     1.0000 0.56600  0.54430  0.51040  Biso   1.000  H 
  C155     1.0000 0.61156  0.52160  0.62130  Biso   1.000  C 
  H169     1.0000 0.59950  0.44150  0.61980  Biso   1.000  H 
  H170     1.0000 0.60790  0.56630  0.64370  Biso   1.000  H 
  H171     1.0000 0.64420  0.51690  0.62840  Biso   1.000  H 
  Cl19     1.0000 0.69049  0.60957  0.59410  Biso   1.000  Cl
  Cl20     1.0000 0.73759  0.84375  0.62235  Biso   1.000  Cl
  C156     1.0000 0.67760  0.08040  0.61329  Biso   1.000  C 
  C157     1.0000 0.64487  0.18920  0.60623  Biso   1.000  C 
  H172     1.0000 0.62450  0.19860  0.57550  Biso   1.000  H 
  H173     1.0000 0.62640  0.17640  0.62170  Biso   1.000  H 
  H174     1.0000 0.66310  0.26120  0.61710  Biso   1.000  H 
  C158     1.0000 0.70543  0.11130  0.58672  Biso   1.000  C 
  H175     1.0000 0.68410  0.12220  0.55630  Biso   1.000  H 
  H176     1.0000 0.72290  0.18410  0.59790  Biso   1.000  H 
  H177     1.0000 0.72650  0.04660  0.58940  Biso   1.000  H 
  C159     1.0000 0.70990  0.07600  0.66319  Biso   1.000  C 
  H178     1.0000 0.72730  0.14950  0.67240  Biso   1.000  H 
  H179     1.0000 0.73120  0.00930  0.66970  Biso   1.000  H 
  H180     1.0000 0.69150  0.06550  0.67890  Biso   1.000  H 
  O39      1.0000 0.57416  0.03547  0.57216  Biso   1.000  O 
  C160     1.0000 0.48794  0.15837  0.53745  Biso   1.000  C 
  O40      1.0000 0.48158  0.25967  0.53679  Biso   1.000  O 
  C161     1.0000 0.51206  0.84163  0.46255  Biso   1.000  C 
  O41      1.0000 0.51842  0.74033  0.46321  Biso   1.000  O 
  C162     1.0000 0.51930  0.14752  0.29920  Biso   1.000  C 
  O42      1.0000 0.53140  0.24545  0.30191  Biso   1.000  O 
  O43      1.0000 0.53600  0.82465  0.22263  Biso   1.000  O 
  C163     1.0000 0.58220  0.82903  0.23880  Biso   1.000  C 
  C164     1.0000 0.60965  0.72100  0.24612  Biso   1.000  C 
  C165     1.0000 0.65586  0.74470  0.25428  Biso   1.000  C 
  C166     1.0000 0.67690  0.86340  0.26549  Biso   1.000  C 
  C167     1.0000 0.65231  0.96720  0.26705  Biso   1.000  C 
  C168     1.0000 0.60281  0.94818  0.24789  Biso   1.000  C 
  O44      1.0000 0.57252  0.03802  0.23803  Biso   1.000  O 
  C169     1.0000 0.67566  0.09050  0.28752  Biso   1.000  C 
  C170     1.0000 0.71777  0.07140  0.33285  Biso   1.000  C 
  H181     1.0000 0.70750  0.03490  0.35260  Biso   1.000  H 
  H182     1.0000 0.73210  0.14800  0.34460  Biso   1.000  H 
  H183     1.0000 0.74040  0.02020  0.32980  Biso   1.000  H 
  C171     1.0000 0.64268  0.17390  0.29687  Biso   1.000  C 
  H184     1.0000 0.61520  0.18990  0.27040  Biso   1.000  H 
  H185     1.0000 0.63400  0.13540  0.31770  Biso   1.000  H 
  H186     1.0000 0.65840  0.24840  0.30940  Biso   1.000  H 
  C172     1.0000 0.69134  0.15670  0.25619  Biso   1.000  C 
  H187     1.0000 0.66460  0.17580  0.22920  Biso   1.000  H 
  H188     1.0000 0.70770  0.22910  0.26960  Biso   1.000  H 
  H189     1.0000 0.71190  0.10490  0.24980  Biso   1.000  H 
  Cl21     1.0000 0.73588  0.87232  0.27709  Biso   1.000  Cl
  Cl22     1.0000 0.69021  0.63064  0.24810  Biso   1.000  Cl
  C173     1.0000 0.58577  0.59770  0.24589  Biso   1.000  C 
  C174     1.0000 0.61800  0.48690  0.26121  Biso   1.000  C 
  H190     1.0000 0.60070  0.41650  0.26110  Biso   1.000  H 
  H191     1.0000 0.64240  0.50020  0.29040  Biso   1.000  H 
  H192     1.0000 0.63240  0.47380  0.24180  Biso   1.000  H 
  C175     1.0000 0.56460  0.60960  0.27957  Biso   1.000  C 
  H193     1.0000 0.54360  0.67720  0.27190  Biso   1.000  H 
  H194     1.0000 0.54770  0.53750  0.27920  Biso   1.000  H 
  H195     1.0000 0.58930  0.62140  0.30870  Biso   1.000  H 
  C176     1.0000 0.54565  0.56760  0.19955  Biso   1.000  C 
  H196     1.0000 0.55840  0.55120  0.17930  Biso   1.000  H 
  H197     1.0000 0.52840  0.49830  0.20130  Biso   1.000  H 
  H198     1.0000 0.52450  0.63510  0.18880  Biso   1.000  H 
  C177     1.0000 0.48070  0.14752  0.20080  Biso   1.000  C 
  O45      1.0000 0.46860  0.24545  0.19809  Biso   1.000  O 
  O46      1.0000 0.53437  0.17369  0.05395  Biso   1.000  O 
  C178     1.0000 0.58082  0.17594  0.07063  Biso   1.000  C 
  C179     1.0000 0.60320  0.05865  0.08043  Biso   1.000  C 
  C180     1.0000 0.65279  0.04360  0.09851  Biso   1.000  C 
  C181     1.0000 0.67696  0.15330  0.10242  Biso   1.000  C 
  C182     1.0000 0.65451  0.26900  0.09156  Biso   1.000  C 
  C183     1.0000 0.60652  0.28695  0.07855  Biso   1.000  C 
  C184     1.0000 0.58458  0.41445  0.07605  Biso   1.000  C 
  C185     1.0000 0.53292  0.41160  0.06804  Biso   1.000  C 
  H199     1.0000 0.51400  0.37360  0.04020  Biso   1.000  H 
  H200     1.0000 0.53020  0.36710  0.09090  Biso   1.000  H 
  H201     1.0000 0.52180  0.49240  0.06740  Biso   1.000  H 
  C186     1.0000 0.61156  0.47840  0.12130  Biso   1.000  C 
  H202     1.0000 0.59950  0.55850  0.11980  Biso   1.000  H 
  H203     1.0000 0.60790  0.43370  0.14370  Biso   1.000  H 
  H204     1.0000 0.64420  0.48310  0.12840  Biso   1.000  H 
  C187     1.0000 0.58561  0.49200  0.03822  Biso   1.000  C 
  H205     1.0000 0.57420  0.57180  0.03910  Biso   1.000  H 
  H206     1.0000 0.56600  0.45570  0.01040  Biso   1.000  H 
  H207     1.0000 0.61700  0.49740  0.04160  Biso   1.000  H 
  Cl23     1.0000 0.69049  0.39043  0.09410  Biso   1.000  Cl
  Cl24     1.0000 0.73759  0.15625  0.12235  Biso   1.000  Cl
  C188     1.0000 0.67760  0.91960  0.11329  Biso   1.000  C 
  C189     1.0000 0.70543  0.88870  0.08672  Biso   1.000  C 
  H208     1.0000 0.72650  0.95340  0.08940  Biso   1.000  H 
  H209     1.0000 0.68410  0.87780  0.05630  Biso   1.000  H 
  H210     1.0000 0.72290  0.81590  0.09790  Biso   1.000  H 
  C190     1.0000 0.64487  0.81080  0.10623  Biso   1.000  C 
  H211     1.0000 0.62640  0.82360  0.12170  Biso   1.000  H 
  H212     1.0000 0.66310  0.73880  0.11710  Biso   1.000  H 
  H213     1.0000 0.62450  0.80140  0.07550  Biso   1.000  H 
  C191     1.0000 0.70990  0.92400  0.16319  Biso   1.000  C 
  H214     1.0000 0.73120  0.99070  0.16970  Biso   1.000  H 
  H215     1.0000 0.69150  0.93450  0.17890  Biso   1.000  H 
  H216     1.0000 0.72730  0.85050  0.17240  Biso   1.000  H 
  O47      1.0000 0.57416  0.96453  0.07216  Biso   1.000  O 
  C192     1.0000 0.48794  0.84163  0.03745  Biso   1.000  C 
  O48      1.0000 0.48158  0.74033  0.03679  Biso   1.000  O 
