data_image0
_cell_length_a       11.71
_cell_length_b       12.819
_cell_length_c       17.969
_cell_angle_alpha    90
_cell_angle_beta     96.744
_cell_angle_gamma    90

_symmetry_space_group_name_H-M    "P 1"
_symmetry_int_tables_number       1

loop_
  _symmetry_equiv_pos_as_xyz
  'x, y, z'

loop_
  _atom_site_label
  _atom_site_occupancy
  _atom_site_fract_x
  _atom_site_fract_y
  _atom_site_fract_z
  _atom_site_thermal_displace_type
  _atom_site_B_iso_or_equiv
  _atom_site_type_symbol
  Cu1      1.0000 0.22893  0.54342  0.11670  Biso   1.000  Cu
  Cl1      1.0000 0.23923  0.37967  0.05696  Biso   1.000  Cl
  N1       1.0000 0.34090  0.63200  0.07220  Biso   1.000  N 
  C1       1.0000 0.43880  0.59700  0.04870  Biso   1.000  C 
  H1       1.0000 0.47170  0.53230  0.06090  Biso   1.000  H 
  C2       1.0000 0.48220  0.66760  0.00560  Biso   1.000  C 
  N2       1.0000 0.40860  0.74770  0.00070  Biso   1.000  N 
  C3       1.0000 0.32140  0.72540  0.04160  Biso   1.000  C 
  H2       1.0000 0.25880  0.76820  0.04730  Biso   1.000  H 
  C4       1.0000 0.41620  0.84240  0.95570  Biso   1.000  C 
  C5       1.0000 0.31750  0.89470  0.92940  Biso   1.000  C 
  H3       1.0000 0.24720  0.87300  0.94320  Biso   1.000  H 
  C6       1.0000 0.32220  0.97800  0.88330  Biso   1.000  C 
  C7       1.0000 0.42720  0.01740  0.86470  Biso   1.000  C 
  N3       1.0000 0.43390  0.10530  0.81830  Biso   1.000  N 
  C8       1.0000 0.34270  0.17820  0.80930  Biso   1.000  C 
  C9       1.0000 0.30170  0.21780  0.74010  Biso   1.000  C 
  H4       1.0000 0.33610  0.19930  0.69790  Biso   1.000  H 
  C10      1.0000 0.20720  0.28660  0.73370  Biso   1.000  C 
  H5       1.0000 0.18010  0.31490  0.68730  Biso   1.000  H 
  C11      1.0000 0.15510  0.31170  0.79550  Biso   1.000  C 
  C12      1.0000 0.19820  0.27640  0.86560  Biso   1.000  C 
  C13      1.0000 0.29160  0.20950  0.87330  Biso   1.000  C 
  H6       1.0000 0.32080  0.18510  0.92040  Biso   1.000  H 
  H7       1.0000 0.16480  0.29750  0.90760  Biso   1.000  H 
  N4       1.0000 0.05240  0.37580  0.78850  Biso   1.000  N 
  C14      1.0000 0.03190  0.46050  0.74870  Biso   1.000  C 
  H8       1.0000 0.07790  0.48820  0.71480  Biso   1.000  H 
  C15      1.0000 0.92940  0.50120  0.76620  Biso   1.000  C 
  H9       1.0000 0.89460  0.56220  0.74670  Biso   1.000  H 
  N5       1.0000 0.88730  0.43580  0.81740  Biso   1.000  N 
  C16      1.0000 0.96390  0.36290  0.83080  Biso   1.000  C 
  H10      1.0000 0.95910  0.30890  0.86480  Biso   1.000  H 
  Cu2      1.0000 0.77107  0.45658  0.88330  Biso   1.000  Cu
  N6       1.0000 0.65910  0.36800  0.92780  Biso   1.000  N 
  C17      1.0000 0.56120  0.40300  0.95130  Biso   1.000  C 
  H11      1.0000 0.52830  0.46770  0.93910  Biso   1.000  H 
  C18      1.0000 0.51780  0.33240  0.99440  Biso   1.000  C 
  H12      1.0000 0.45020  0.33760  0.01660  Biso   1.000  H 
  N7       1.0000 0.59140  0.25230  0.99930  Biso   1.000  N 
  C19      1.0000 0.67860  0.27460  0.95840  Biso   1.000  C 
  H13      1.0000 0.74120  0.23180  0.95270  Biso   1.000  H 
  C20      1.0000 0.58380  0.15760  0.04430  Biso   1.000  C 
  C21      1.0000 0.68250  0.10530  0.07060  Biso   1.000  C 
  H14      1.0000 0.75280  0.12700  0.05680  Biso   1.000  H 
  C22      1.0000 0.67780  0.02200  0.11670  Biso   1.000  C 
  C23      1.0000 0.57280  0.98260  0.13530  Biso   1.000  C 
  C24      1.0000 0.47360  0.03750  0.10580  Biso   1.000  C 
  H15      1.0000 0.40210  0.01390  0.11620  Biso   1.000  H 
  C25      1.0000 0.47890  0.12370  0.06270  Biso   1.000  C 
  H16      1.0000 0.41210  0.15990  0.04550  Biso   1.000  H 
  N8       1.0000 0.56610  0.89470  0.18170  Biso   1.000  N 
  C26      1.0000 0.47740  0.88590  0.22980  Biso   1.000  C 
  C27      1.0000 0.41980  0.79550  0.23330  Biso   1.000  C 
  H17      1.0000 0.43990  0.73830  0.20570  Biso   1.000  H 
  C28      1.0000 0.32900  0.78630  0.27830  Biso   1.000  C 
  H18      1.0000 0.29090  0.72330  0.28210  Biso   1.000  H 
  C29      1.0000 0.29830  0.87460  0.31660  Biso   1.000  C 
  C30      1.0000 0.35510  0.96660  0.31320  Biso   1.000  C 
  C31      1.0000 0.44590  0.97080  0.27060  Biso   1.000  C 
  H19      1.0000 0.48720  0.03270  0.26920  Biso   1.000  H 
  H20      1.0000 0.33350  0.02510  0.33880  Biso   1.000  H 
  N9       1.0000 0.20180  0.86680  0.36080  Biso   1.000  N 
  C32      1.0000 0.11630  0.79800  0.35240  Biso   1.000  C 
  H21      1.0000 0.10940  0.74180  0.31940  Biso   1.000  H 
  C33      1.0000 0.04040  0.82550  0.40140  Biso   1.000  C 
  N10      1.0000 0.07890  0.91330  0.43740  Biso   1.000  N 
  C34      1.0000 0.17740  0.93640  0.41200  Biso   1.000  C 
  H22      1.0000 0.22340  0.99330  0.42760  Biso   1.000  H 
  Cu3      1.0000 0.00000  0.00000  0.50000  Biso   1.000  Cu
  N11      1.0000 0.92110  0.08670  0.56260  Biso   1.000  N 
  C35      1.0000 0.95960  0.17450  0.59860  Biso   1.000  C 
  H23      1.0000 0.02640  0.21030  0.59140  Biso   1.000  H 
  C36      1.0000 0.88370  0.20200  0.64760  Biso   1.000  C 
  H24      1.0000 0.89060  0.25820  0.68060  Biso   1.000  H 
  N12      1.0000 0.79820  0.13320  0.63920  Biso   1.000  N 
  C37      1.0000 0.70170  0.12540  0.68340  Biso   1.000  C 
  C38      1.0000 0.64490  0.03340  0.68680  Biso   1.000  C 
  C39      1.0000 0.55410  0.02920  0.72940  Biso   1.000  C 
  C40      1.0000 0.52260  0.11410  0.77020  Biso   1.000  C 
  C41      1.0000 0.58020  0.20450  0.76670  Biso   1.000  C 
  C42      1.0000 0.67100  0.21370  0.72170  Biso   1.000  C 
  H25      1.0000 0.70910  0.27670  0.71790  Biso   1.000  H 
  H26      1.0000 0.56010  0.26170  0.79430  Biso   1.000  H 
  H27      1.0000 0.51280  0.96730  0.73080  Biso   1.000  H 
  H28      1.0000 0.66650  0.97490  0.66120  Biso   1.000  H 
  C43      1.0000 0.82260  0.06360  0.58800  Biso   1.000  C 
  H29      1.0000 0.77660  0.00670  0.57240  Biso   1.000  H 
  H30      1.0000 0.97360  0.78970  0.40860  Biso   1.000  H 
  C44      1.0000 0.65730  0.82180  0.19070  Biso   1.000  C 
  C45      1.0000 0.70840  0.79050  0.12670  Biso   1.000  C 
  H31      1.0000 0.67920  0.81490  0.07960  Biso   1.000  H 
  C46      1.0000 0.80180  0.72360  0.13440  Biso   1.000  C 
  H32      1.0000 0.83520  0.70250  0.09240  Biso   1.000  H 
  C47      1.0000 0.84490  0.68830  0.20450  Biso   1.000  C 
  C48      1.0000 0.79280  0.71340  0.26630  Biso   1.000  C 
  H33      1.0000 0.81990  0.68510  0.31270  Biso   1.000  H 
  C49      1.0000 0.69830  0.78220  0.25990  Biso   1.000  C 
  H34      1.0000 0.66390  0.80070  0.30210  Biso   1.000  H 
  N13      1.0000 0.94760  0.62420  0.21150  Biso   1.000  N 
  C50      1.0000 0.96810  0.53950  0.25130  Biso   1.000  C 
  H35      1.0000 0.92210  0.51180  0.28520  Biso   1.000  H 
  C51      1.0000 0.07060  0.49880  0.23380  Biso   1.000  C 
  H36      1.0000 0.10540  0.43780  0.25330  Biso   1.000  H 
  N14      1.0000 0.11270  0.56420  0.18260  Biso   1.000  N 
  C52      1.0000 0.03610  0.63710  0.16920  Biso   1.000  C 
  H37      1.0000 0.04090  0.69110  0.13520  Biso   1.000  H 
  H38      1.0000 0.74600  0.99010  0.13650  Biso   1.000  H 
  Cl2      1.0000 0.76077  0.62033  0.94304  Biso   1.000  Cl
  C53      1.0000 0.52640  0.96250  0.89420  Biso   1.000  C 
  H39      1.0000 0.59790  0.98610  0.88380  Biso   1.000  H 
  C54      1.0000 0.52110  0.87630  0.93730  Biso   1.000  C 
  H40      1.0000 0.58790  0.84010  0.95450  Biso   1.000  H 
  H41      1.0000 0.25400  0.00990  0.86350  Biso   1.000  H 
  H42      1.0000 0.54980  0.66240  0.98340  Biso   1.000  H 
