data_image0
_cell_length_a       20.9098
_cell_length_b       10.9307
_cell_length_c       17.8599
_cell_angle_alpha    90
_cell_angle_beta     109.619
_cell_angle_gamma    90

_symmetry_space_group_name_H-M    "P 1"
_symmetry_int_tables_number       1

loop_
  _symmetry_equiv_pos_as_xyz
  'x, y, z'

loop_
  _atom_site_label
  _atom_site_occupancy
  _atom_site_fract_x
  _atom_site_fract_y
  _atom_site_fract_z
  _atom_site_thermal_displace_type
  _atom_site_B_iso_or_equiv
  _atom_site_type_symbol
  Ag1      1.0000 0.22530  0.80899  0.24955  Biso   1.000  Ag
  N1       1.0000 0.13040  0.73620  0.25160  Biso   1.000  N 
  C1       1.0000 0.12820  0.67430  0.31550  Biso   1.000  C 
  H1       1.0000 0.16970  0.66100  0.35770  Biso   1.000  H 
  C2       1.0000 0.06950  0.62900  0.32370  Biso   1.000  C 
  C3       1.0000 0.00840  0.64630  0.26290  Biso   1.000  C 
  N2       1.0000 0.94800  0.60140  0.26750  Biso   1.000  N 
  C4       1.0000 0.93570  0.60900  0.34500  Biso   1.000  C 
  H2       1.0000 0.89840  0.55250  0.34360  Biso   1.000  H 
  C5       1.0000 0.91860  0.73040  0.36420  Biso   1.000  C 
  C6       1.0000 0.88820  0.82090  0.31120  Biso   1.000  C 
  H3       1.0000 0.87840  0.80370  0.25630  Biso   1.000  H 
  C7       1.0000 0.87080  0.93420  0.33080  Biso   1.000  C 
  H4       1.0000 0.83570  0.98360  0.29660  Biso   1.000  H 
  C8       1.0000 0.91130  0.96780  0.40760  Biso   1.000  C 
  H5       1.0000 0.90850  0.04980  0.42370  Biso   1.000  H 
  C9       1.0000 0.95520  0.88980  0.46160  Biso   1.000  C 
  H6       1.0000 0.98280  0.91870  0.51230  Biso   1.000  H 
  C10      1.0000 0.95830  0.76680  0.44010  Biso   1.000  C 
  H7       1.0000 0.98670  0.71000  0.47650  Biso   1.000  H 
  H8       1.0000 0.97700  0.58100  0.38780  Biso   1.000  H 
  C11      1.0000 0.90000  0.54730  0.20180  Biso   1.000  C 
  C12      1.0000 0.92090  0.48550  0.14660  Biso   1.000  C 
  H9       1.0000 0.96760  0.48200  0.15200  Biso   1.000  H 
  C13      1.0000 0.87310  0.42920  0.08400  Biso   1.000  C 
  H10      1.0000 0.88870  0.38570  0.04740  Biso   1.000  H 
  N3       1.0000 0.80630  0.43120  0.07050  Biso   1.000  N 
  C14      1.0000 0.78680  0.49170  0.12420  Biso   1.000  C 
  H11      1.0000 0.73960  0.49510  0.11640  Biso   1.000  H 
  C15      1.0000 0.83030  0.54900  0.18950  Biso   1.000  C 
  H12      1.0000 0.81350  0.58950  0.22610  Biso   1.000  H 
  Ag2      1.0000 0.73727  0.31968  0.97367  Biso   1.000  Ag
  N4       1.0000 0.64890  0.32520  0.86490  Biso   1.000  N 
  C16      1.0000 0.58790  0.29990  0.86730  Biso   1.000  C 
  H13      1.0000 0.58440  0.25640  0.91180  Biso   1.000  H 
  C17      1.0000 0.52800  0.33450  0.80690  Biso   1.000  C 
  C18      1.0000 0.53320  0.40250  0.74130  Biso   1.000  C 
  N5       1.0000 0.47440  0.44390  0.68160  Biso   1.000  N 
  C19      1.0000 0.47060  0.42240  0.59910  Biso   1.000  C 
  C20      1.0000 0.44940  0.29480  0.56980  Biso   1.000  C 
  C21      1.0000 0.46970  0.24650  0.50980  Biso   1.000  C 
  H14      1.0000 0.49900  0.29330  0.49010  Biso   1.000  H 
  C22      1.0000 0.44890  0.13290  0.47790  Biso   1.000  C 
  H15      1.0000 0.46360  0.10240  0.43650  Biso   1.000  H 
  C23      1.0000 0.40700  0.06350  0.50570  Biso   1.000  C 
  C24      1.0000 0.38630  0.10800  0.56460  Biso   1.000  C 
  H16      1.0000 0.35640  0.06120  0.58310  Biso   1.000  H 
  C25      1.0000 0.40890  0.22270  0.59840  Biso   1.000  C 
  H17      1.0000 0.39600  0.25090  0.64160  Biso   1.000  H 
  H18      1.0000 0.39260  0.98490  0.48380  Biso   1.000  H 
  H19      1.0000 0.43790  0.48100  0.56420  Biso   1.000  H 
  H20      1.0000 0.51560  0.43920  0.59450  Biso   1.000  H 
  C26      1.0000 0.41930  0.49140  0.69840  Biso   1.000  C 
  C27      1.0000 0.35530  0.49300  0.64320  Biso   1.000  C 
  H21      1.0000 0.34720  0.46090  0.59140  Biso   1.000  H 
  C28      1.0000 0.30360  0.54170  0.66390  Biso   1.000  C 
  H22      1.0000 0.25950  0.53900  0.62500  Biso   1.000  H 
  N6       1.0000 0.30890  0.59300  0.73410  Biso   1.000  N 
  C29      1.0000 0.37130  0.59470  0.78640  Biso   1.000  C 
  C30      1.0000 0.42710  0.54630  0.77270  Biso   1.000  C 
  H23      1.0000 0.47060  0.54970  0.81280  Biso   1.000  H 
  H24      1.0000 0.37790  0.63160  0.83660  Biso   1.000  H 
  Ag3      1.0000 0.22530  0.69101  0.74955  Biso   1.000  Ag
  N7       1.0000 0.13040  0.76380  0.75160  Biso   1.000  N 
  C31      1.0000 0.12820  0.82570  0.81550  Biso   1.000  C 
  H25      1.0000 0.16970  0.83900  0.85770  Biso   1.000  H 
  C32      1.0000 0.06950  0.87100  0.82370  Biso   1.000  C 
  C33      1.0000 0.00840  0.85370  0.76290  Biso   1.000  C 
  N8       1.0000 0.94800  0.89860  0.76750  Biso   1.000  N 
  C34      1.0000 0.90000  0.95270  0.70180  Biso   1.000  C 
  C35      1.0000 0.83030  0.95100  0.68950  Biso   1.000  C 
  H26      1.0000 0.81350  0.91050  0.72610  Biso   1.000  H 
  C36      1.0000 0.78680  0.00830  0.62420  Biso   1.000  C 
  H27      1.0000 0.73960  0.00490  0.61640  Biso   1.000  H 
  N9       1.0000 0.80630  0.06880  0.57050  Biso   1.000  N 
  C37      1.0000 0.87310  0.07080  0.58400  Biso   1.000  C 
  C38      1.0000 0.92090  0.01450  0.64660  Biso   1.000  C 
  H28      1.0000 0.96760  0.01800  0.65200  Biso   1.000  H 
  H29      1.0000 0.88870  0.11430  0.54740  Biso   1.000  H 
  Ag4      1.0000 0.73727  0.18032  0.47367  Biso   1.000  Ag
  N10      1.0000 0.64890  0.17480  0.36490  Biso   1.000  N 
  C39      1.0000 0.58790  0.20010  0.36730  Biso   1.000  C 
  H30      1.0000 0.58440  0.24360  0.41180  Biso   1.000  H 
  C40      1.0000 0.52800  0.16550  0.30690  Biso   1.000  C 
  H31      1.0000 0.48480  0.18710  0.30970  Biso   1.000  H 
  C41      1.0000 0.53320  0.09750  0.24130  Biso   1.000  C 
  N11      1.0000 0.47440  0.05610  0.18160  Biso   1.000  N 
  C42      1.0000 0.47060  0.07760  0.09910  Biso   1.000  C 
  C43      1.0000 0.44940  0.20520  0.06980  Biso   1.000  C 
  C44      1.0000 0.40890  0.27730  0.09840  Biso   1.000  C 
  H32      1.0000 0.39600  0.24910  0.14160  Biso   1.000  H 
  C45      1.0000 0.38630  0.39200  0.06460  Biso   1.000  C 
  H33      1.0000 0.35640  0.43880  0.08310  Biso   1.000  H 
  C46      1.0000 0.40700  0.43650  0.00570  Biso   1.000  C 
  H34      1.0000 0.39260  0.51510  0.98380  Biso   1.000  H 
  C47      1.0000 0.44890  0.36710  0.97790  Biso   1.000  C 
  H35      1.0000 0.46360  0.39760  0.93650  Biso   1.000  H 
  C48      1.0000 0.46970  0.25350  0.00980  Biso   1.000  C 
  H36      1.0000 0.49900  0.20670  0.99010  Biso   1.000  H 
  H37      1.0000 0.43790  0.01900  0.06420  Biso   1.000  H 
  H38      1.0000 0.51560  0.06080  0.09450  Biso   1.000  H 
  C49      1.0000 0.41930  0.00860  0.19840  Biso   1.000  C 
  C50      1.0000 0.35530  0.00700  0.14320  Biso   1.000  C 
  H39      1.0000 0.34720  0.03910  0.09140  Biso   1.000  H 
  C51      1.0000 0.30360  0.95830  0.16390  Biso   1.000  C 
  H40      1.0000 0.25950  0.96100  0.12500  Biso   1.000  H 
  N12      1.0000 0.30890  0.90700  0.23410  Biso   1.000  N 
  C52      1.0000 0.37130  0.90530  0.28640  Biso   1.000  C 
  C53      1.0000 0.42710  0.95370  0.27270  Biso   1.000  C 
  H41      1.0000 0.47060  0.95030  0.31280  Biso   1.000  H 
  H42      1.0000 0.37790  0.86840  0.33660  Biso   1.000  H 
  C54      1.0000 0.59840  0.07560  0.24200  Biso   1.000  C 
  H43      1.0000 0.60540  0.03200  0.19940  Biso   1.000  H 
  C55      1.0000 0.65220  0.11610  0.30300  Biso   1.000  C 
  H44      1.0000 0.69610  0.10040  0.30040  Biso   1.000  H 
  O1       1.0000 0.67130  0.23140  0.57180  Biso   1.000  O 
  N13      1.0000 0.66910  0.34090  0.59110  Biso   1.000  N 
  O2       1.0000 0.62620  0.41240  0.54900  Biso   1.000  O 
  O3       1.0000 0.71000  0.37840  0.65590  Biso   1.000  O 
  Ag5      1.0000 0.77470  0.19101  0.75045  Biso   1.000  Ag
  N14      1.0000 0.69110  0.09300  0.76590  Biso   1.000  N 
  C56      1.0000 0.62870  0.09470  0.71360  Biso   1.000  C 
  C57      1.0000 0.57290  0.04630  0.72730  Biso   1.000  C 
  H45      1.0000 0.52940  0.04970  0.68720  Biso   1.000  H 
  C58      1.0000 0.58070  0.99140  0.80160  Biso   1.000  C 
  C59      1.0000 0.64470  0.99300  0.85680  Biso   1.000  C 
  H46      1.0000 0.65280  0.96090  0.90860  Biso   1.000  H 
  C60      1.0000 0.69640  0.04170  0.83610  Biso   1.000  C 
  H47      1.0000 0.74050  0.03900  0.87500  Biso   1.000  H 
  N15      1.0000 0.52560  0.94390  0.81840  Biso   1.000  N 
  C61      1.0000 0.46680  0.90250  0.75870  Biso   1.000  C 
  C62      1.0000 0.47200  0.83450  0.69310  Biso   1.000  C 
  H48      1.0000 0.51520  0.81290  0.69030  Biso   1.000  H 
  C63      1.0000 0.41210  0.79990  0.63270  Biso   1.000  C 
  H49      1.0000 0.41560  0.75640  0.58820  Biso   1.000  H 
  N16      1.0000 0.35110  0.82520  0.63510  Biso   1.000  N 
  C64      1.0000 0.34780  0.88390  0.69700  Biso   1.000  C 
  C65      1.0000 0.40160  0.92440  0.75800  Biso   1.000  C 
  H50      1.0000 0.39460  0.96800  0.80060  Biso   1.000  H 
  H51      1.0000 0.30390  0.89960  0.69960  Biso   1.000  H 
  Ag6      1.0000 0.26273  0.81968  0.52633  Biso   1.000  Ag
  O4       1.0000 0.18840  0.62170  0.49510  Biso   1.000  O 
  N17      1.0000 0.14950  0.64690  0.53530  Biso   1.000  N 
  O5       1.0000 0.16050  0.74230  0.57700  Biso   1.000  O 
  O6       1.0000 0.10310  0.57730  0.53280  Biso   1.000  O 
  N18      1.0000 0.19370  0.93120  0.42950  Biso   1.000  N 
  C66      1.0000 0.12690  0.92920  0.41600  Biso   1.000  C 
  C67      1.0000 0.07910  0.98550  0.35340  Biso   1.000  C 
  H52      1.0000 0.03240  0.98200  0.34800  Biso   1.000  H 
  C68      1.0000 0.10000  0.04730  0.29820  Biso   1.000  C 
  C69      1.0000 0.16970  0.04900  0.31050  Biso   1.000  C 
  H53      1.0000 0.18650  0.08950  0.27390  Biso   1.000  H 
  C70      1.0000 0.21320  0.99170  0.37580  Biso   1.000  C 
  H54      1.0000 0.26040  0.99510  0.38360  Biso   1.000  H 
  N19      1.0000 0.05200  0.10140  0.23250  Biso   1.000  N 
  C71      1.0000 0.06430  0.10900  0.15500  Biso   1.000  C 
  C72      1.0000 0.08140  0.23040  0.13580  Biso   1.000  C 
  C73      1.0000 0.04170  0.26680  0.05990  Biso   1.000  C 
  H55      1.0000 0.01330  0.21000  0.02350  Biso   1.000  H 
  C74      1.0000 0.04480  0.38980  0.03840  Biso   1.000  C 
  C75      1.0000 0.08870  0.46780  0.09240  Biso   1.000  C 
  C76      1.0000 0.12920  0.43420  0.16920  Biso   1.000  C 
  C77      1.0000 0.11180  0.32090  0.18880  Biso   1.000  C 
  H56      1.0000 0.12160  0.30370  0.24370  Biso   1.000  H 
  H57      1.0000 0.16430  0.48360  0.20340  Biso   1.000  H 
  H58      1.0000 0.09150  0.54980  0.07630  Biso   1.000  H 
  H59      1.0000 0.01720  0.41870  0.98770  Biso   1.000  H 
  H60      1.0000 0.02300  0.08100  0.11220  Biso   1.000  H 
  H61      1.0000 0.10160  0.05250  0.15640  Biso   1.000  H 
  C78      1.0000 0.99160  0.14630  0.23710  Biso   1.000  C 
  C79      1.0000 0.93050  0.12900  0.17630  Biso   1.000  C 
  H62      1.0000 0.92910  0.08630  0.12940  Biso   1.000  H 
  C80      1.0000 0.87180  0.17430  0.18450  Biso   1.000  C 
  H63      1.0000 0.83030  0.16100  0.14230  Biso   1.000  H 
  N20      1.0000 0.86960  0.23620  0.24840  Biso   1.000  N 
  C81      1.0000 0.92880  0.25560  0.30630  Biso   1.000  C 
  H64      1.0000 0.92870  0.30100  0.35160  Biso   1.000  H 
  C82      1.0000 0.98990  0.21290  0.30340  Biso   1.000  C 
  H65      1.0000 0.03070  0.22860  0.34610  Biso   1.000  H 
  Ag7      1.0000 0.77470  0.30899  0.25045  Biso   1.000  Ag
  N21      1.0000 0.69110  0.40700  0.26590  Biso   1.000  N 
  C83      1.0000 0.62870  0.40530  0.21360  Biso   1.000  C 
  H66      1.0000 0.62210  0.36840  0.16340  Biso   1.000  H 
  C84      1.0000 0.57290  0.45370  0.22730  Biso   1.000  C 
  H67      1.0000 0.52940  0.45030  0.18720  Biso   1.000  H 
  C85      1.0000 0.58070  0.50860  0.30160  Biso   1.000  C 
  C86      1.0000 0.64470  0.50700  0.35680  Biso   1.000  C 
  C87      1.0000 0.69640  0.45830  0.33610  Biso   1.000  C 
  H68      1.0000 0.74050  0.46100  0.37500  Biso   1.000  H 
  H69      1.0000 0.65280  0.53910  0.40860  Biso   1.000  H 
  N22      1.0000 0.52560  0.55610  0.31840  Biso   1.000  N 
  C88      1.0000 0.46680  0.59750  0.25870  Biso   1.000  C 
  C89      1.0000 0.47200  0.66550  0.19310  Biso   1.000  C 
  C90      1.0000 0.41210  0.70010  0.13270  Biso   1.000  C 
  H70      1.0000 0.41560  0.74360  0.08820  Biso   1.000  H 
  N23      1.0000 0.35110  0.67480  0.13510  Biso   1.000  N 
  C91      1.0000 0.34780  0.61610  0.19700  Biso   1.000  C 
  H71      1.0000 0.30390  0.60040  0.19960  Biso   1.000  H 
  C92      1.0000 0.40160  0.57560  0.25800  Biso   1.000  C 
  H72      1.0000 0.39460  0.53200  0.30060  Biso   1.000  H 
  Ag8      1.0000 0.26273  0.68032  0.02633  Biso   1.000  Ag
  N24      1.0000 0.19370  0.56880  0.92950  Biso   1.000  N 
  C93      1.0000 0.21320  0.50830  0.87580  Biso   1.000  C 
  H73      1.0000 0.26040  0.50490  0.88360  Biso   1.000  H 
  C94      1.0000 0.16970  0.45100  0.81050  Biso   1.000  C 
  H74      1.0000 0.18650  0.41050  0.77390  Biso   1.000  H 
  C95      1.0000 0.10000  0.45270  0.79820  Biso   1.000  C 
  C96      1.0000 0.07910  0.51450  0.85340  Biso   1.000  C 
  H75      1.0000 0.03240  0.51800  0.84800  Biso   1.000  H 
  C97      1.0000 0.12690  0.57080  0.91600  Biso   1.000  C 
  H76      1.0000 0.11130  0.61430  0.95260  Biso   1.000  H 
  N25      1.0000 0.05200  0.39860  0.73250  Biso   1.000  N 
  C98      1.0000 0.06430  0.39100  0.65500  Biso   1.000  C 
  C99      1.0000 0.08140  0.26960  0.63580  Biso   1.000  C 
  C100     1.0000 0.04170  0.23320  0.55990  Biso   1.000  C 
  H77      1.0000 0.01330  0.29000  0.52350  Biso   1.000  H 
  C101     1.0000 0.04480  0.11020  0.53840  Biso   1.000  C 
  H78      1.0000 0.01720  0.08130  0.48770  Biso   1.000  H 
  C102     1.0000 0.08870  0.03220  0.59240  Biso   1.000  C 
  C103     1.0000 0.12920  0.06580  0.66920  Biso   1.000  C 
  H79      1.0000 0.16430  0.01640  0.70340  Biso   1.000  H 
  C104     1.0000 0.11180  0.17910  0.68880  Biso   1.000  C 
  H80      1.0000 0.12160  0.19630  0.74370  Biso   1.000  H 
  H81      1.0000 0.09150  0.95020  0.57630  Biso   1.000  H 
  H82      1.0000 0.02300  0.41900  0.61220  Biso   1.000  H 
  H83      1.0000 0.10160  0.44750  0.65640  Biso   1.000  H 
  C105     1.0000 0.99160  0.35370  0.73710  Biso   1.000  C 
  C106     1.0000 0.93050  0.37100  0.67630  Biso   1.000  C 
  H84      1.0000 0.92910  0.41370  0.62940  Biso   1.000  H 
  C107     1.0000 0.87180  0.32570  0.68450  Biso   1.000  C 
  H85      1.0000 0.83030  0.33900  0.64230  Biso   1.000  H 
  N26      1.0000 0.86960  0.26380  0.74840  Biso   1.000  N 
  C108     1.0000 0.92880  0.24440  0.80630  Biso   1.000  C 
  C109     1.0000 0.98990  0.28710  0.80340  Biso   1.000  C 
  H86      1.0000 0.03070  0.27140  0.84610  Biso   1.000  H 
  H87      1.0000 0.92870  0.19900  0.85160  Biso   1.000  H 
  O7       1.0000 0.18840  0.87830  0.99510  Biso   1.000  O 
  N27      1.0000 0.14950  0.85310  0.03530  Biso   1.000  N 
  O8       1.0000 0.16050  0.75770  0.07700  Biso   1.000  O 
  O9       1.0000 0.10310  0.92270  0.03280  Biso   1.000  O 
  O10      1.0000 0.32870  0.73140  0.92820  Biso   1.000  O 
  N28      1.0000 0.33090  0.84090  0.90890  Biso   1.000  N 
  O11      1.0000 0.29000  0.87840  0.84410  Biso   1.000  O 
  O12      1.0000 0.37380  0.91240  0.95100  Biso   1.000  O 
  H88      1.0000 0.51520  0.68710  0.19030  Biso   1.000  H 
  C110     1.0000 0.52940  0.57760  0.40090  Biso   1.000  C 
  H89      1.0000 0.48440  0.56080  0.40550  Biso   1.000  H 
  H90      1.0000 0.56210  0.51900  0.43580  Biso   1.000  H 
  C111     1.0000 0.55060  0.70520  0.43020  Biso   1.000  C 
  C112     1.0000 0.59110  0.77730  0.40160  Biso   1.000  C 
  H91      1.0000 0.60400  0.74910  0.35840  Biso   1.000  H 
  C113     1.0000 0.61370  0.89200  0.43540  Biso   1.000  C 
  C114     1.0000 0.59300  0.93650  0.49430  Biso   1.000  C 
  C115     1.0000 0.55110  0.86710  0.52210  Biso   1.000  C 
  H92      1.0000 0.53640  0.89760  0.56350  Biso   1.000  H 
  C116     1.0000 0.53030  0.75350  0.49020  Biso   1.000  C 
  H93      1.0000 0.50100  0.70670  0.50990  Biso   1.000  H 
  H94      1.0000 0.60740  0.01510  0.51620  Biso   1.000  H 
  H95      1.0000 0.64360  0.93880  0.41690  Biso   1.000  H 
  O13      1.0000 0.71000  0.12160  0.15590  Biso   1.000  O 
  N29      1.0000 0.66910  0.15910  0.09110  Biso   1.000  N 
  O14      1.0000 0.62620  0.08760  0.04900  Biso   1.000  O 
  O15      1.0000 0.67130  0.26860  0.07180  Biso   1.000  O 
  H96      1.0000 0.11130  0.88570  0.45260  Biso   1.000  H 
  O16      1.0000 0.32870  0.76860  0.42820  Biso   1.000  O 
  N30      1.0000 0.33090  0.65910  0.40890  Biso   1.000  N 
  O17      1.0000 0.29000  0.62160  0.34410  Biso   1.000  O 
  O18      1.0000 0.37380  0.58760  0.45100  Biso   1.000  O 
  C117     1.0000 0.52940  0.92240  0.90090  Biso   1.000  C 
  C118     1.0000 0.55060  0.79480  0.93020  Biso   1.000  C 
  C119     1.0000 0.59110  0.72270  0.90160  Biso   1.000  C 
  C120     1.0000 0.61370  0.60800  0.93540  Biso   1.000  C 
  C121     1.0000 0.59300  0.56350  0.99430  Biso   1.000  C 
  C122     1.0000 0.55110  0.63290  0.02210  Biso   1.000  C 
  H97      1.0000 0.53640  0.60240  0.06350  Biso   1.000  H 
  C123     1.0000 0.53030  0.74650  0.99020  Biso   1.000  C 
  H98      1.0000 0.50100  0.79330  0.00990  Biso   1.000  H 
  H99      1.0000 0.60740  0.48490  0.01620  Biso   1.000  H 
  H100     1.0000 0.64360  0.56120  0.91690  Biso   1.000  H 
  H101     1.0000 0.60400  0.75090  0.85840  Biso   1.000  H 
  H102     1.0000 0.48440  0.93920  0.90550  Biso   1.000  H 
  H103     1.0000 0.56210  0.98100  0.93580  Biso   1.000  H 
  H104     1.0000 0.62210  0.13160  0.66340  Biso   1.000  H 
  O19      1.0000 0.81160  0.37830  0.50490  Biso   1.000  O 
  N31      1.0000 0.85050  0.35310  0.46470  Biso   1.000  N 
  O20      1.0000 0.83950  0.25770  0.42300  Biso   1.000  O 
  O21      1.0000 0.89690  0.42270  0.46720  Biso   1.000  O 
  C124     1.0000 0.93570  0.89100  0.84500  Biso   1.000  C 
  H105     1.0000 0.97700  0.91900  0.88780  Biso   1.000  H 
  H106     1.0000 0.89840  0.94750  0.84360  Biso   1.000  H 
  C125     1.0000 0.91860  0.76960  0.86420  Biso   1.000  C 
  C126     1.0000 0.88820  0.67910  0.81120  Biso   1.000  C 
  H107     1.0000 0.87840  0.69630  0.75630  Biso   1.000  H 
  C127     1.0000 0.87080  0.56580  0.83080  Biso   1.000  C 
  H108     1.0000 0.83570  0.51640  0.79660  Biso   1.000  H 
  C128     1.0000 0.91130  0.53220  0.90760  Biso   1.000  C 
  H109     1.0000 0.90850  0.45020  0.92370  Biso   1.000  H 
  C129     1.0000 0.95520  0.61020  0.96160  Biso   1.000  C 
  H110     1.0000 0.98280  0.58130  0.01230  Biso   1.000  H 
  C130     1.0000 0.95830  0.73320  0.94010  Biso   1.000  C 
  H111     1.0000 0.98670  0.79000  0.97650  Biso   1.000  H 
  C131     1.0000 0.01010  0.78710  0.69660  Biso   1.000  C 
  C132     1.0000 0.07120  0.74440  0.69370  Biso   1.000  C 
  H112     1.0000 0.07130  0.69900  0.64840  Biso   1.000  H 
  H113     1.0000 0.96930  0.77140  0.65390  Biso   1.000  H 
  H114     1.0000 0.07090  0.91370  0.87060  Biso   1.000  H 
  C133     1.0000 0.59840  0.42440  0.74200  Biso   1.000  C 
  H115     1.0000 0.60540  0.46800  0.69940  Biso   1.000  H 
  C134     1.0000 0.65220  0.38390  0.80300  Biso   1.000  C 
  H116     1.0000 0.69610  0.39960  0.80040  Biso   1.000  H 
  H117     1.0000 0.48480  0.31290  0.80970  Biso   1.000  H 
  O22      1.0000 0.81160  0.12170  0.00490  Biso   1.000  O 
  N32      1.0000 0.85050  0.14690  0.96470  Biso   1.000  N 
  O23      1.0000 0.89690  0.07730  0.96720  Biso   1.000  O 
  O24      1.0000 0.83950  0.24230  0.92300  Biso   1.000  O 
  C135     1.0000 0.01010  0.71290  0.19660  Biso   1.000  C 
  C136     1.0000 0.07120  0.75560  0.19370  Biso   1.000  C 
  H118     1.0000 0.07130  0.80100  0.14840  Biso   1.000  H 
  H119     1.0000 0.96930  0.72860  0.15390  Biso   1.000  H 
  H120     1.0000 0.07090  0.58630  0.37060  Biso   1.000  H 
