data_image0
_cell_length_a       13.7841
_cell_length_b       13.7841
_cell_length_c       9.2424
_cell_angle_alpha    90
_cell_angle_beta     90
_cell_angle_gamma    120

_symmetry_space_group_name_H-M    "P 1"
_symmetry_int_tables_number       1

loop_
  _symmetry_equiv_pos_as_xyz
  'x, y, z'

loop_
  _atom_site_label
  _atom_site_occupancy
  _atom_site_fract_x
  _atom_site_fract_y
  _atom_site_fract_z
  _atom_site_thermal_displace_type
  _atom_site_B_iso_or_equiv
  _atom_site_type_symbol
  Fe1      1.0000 0.66670  0.33330  0.00000  Biso   1.000  Fe
  O1       1.0000 0.53960  0.19760  0.10920  Biso   1.000  O 
  C1       1.0000 0.51330  0.10190  0.06110  Biso   1.000  C 
  C2       1.0000 0.42530  0.00000  0.10990  Biso   1.000  C 
  Br1      1.0000 0.32649  0.00000  0.24967  Biso   1.000  Br
  C3       1.0000 0.41140  0.89810  0.06110  Biso   1.000  C 
  O2       1.0000 0.34200  0.80240  0.10920  Biso   1.000  O 
  Fe2      1.0000 0.33330  0.66670  0.00000  Biso   1.000  Fe
  O3       1.0000 0.19760  0.53960  0.10920  Biso   1.000  O 
  C4       1.0000 0.10190  0.51330  0.06110  Biso   1.000  C 
  C5       1.0000 0.00000  0.42530  0.10990  Biso   1.000  C 
  Br2      1.0000 0.00000  0.32649  0.24967  Biso   1.000  Br
  C6       1.0000 0.89810  0.41140  0.06110  Biso   1.000  C 
  O4       1.0000 0.80240  0.34200  0.10920  Biso   1.000  O 
  C7       1.0000 0.89810  0.48670  0.93890  Biso   1.000  C 
  C8       1.0000 0.00000  0.57470  0.89010  Biso   1.000  C 
  Br3      1.0000 0.00000  0.67351  0.75033  Biso   1.000  Br
  C9       1.0000 0.10190  0.58860  0.93890  Biso   1.000  C 
  O5       1.0000 0.19760  0.65800  0.89080  Biso   1.000  O 
  O6       1.0000 0.80240  0.46040  0.89080  Biso   1.000  O 
  O7       1.0000 0.46040  0.65800  0.10920  Biso   1.000  O 
  C10      1.0000 0.48670  0.58860  0.06110  Biso   1.000  C 
  C11      1.0000 0.57470  0.57470  0.10990  Biso   1.000  C 
  Br4      1.0000 0.67351  0.67351  0.24967  Biso   1.000  Br
  C12      1.0000 0.58860  0.48670  0.06110  Biso   1.000  C 
  O8       1.0000 0.65800  0.46040  0.10920  Biso   1.000  O 
  C13      1.0000 0.51330  0.41140  0.93890  Biso   1.000  C 
  C14      1.0000 0.42530  0.42530  0.89010  Biso   1.000  C 
  Br5      1.0000 0.32649  0.32649  0.75033  Biso   1.000  Br
  C15      1.0000 0.41140  0.51330  0.93890  Biso   1.000  C 
  O9       1.0000 0.34200  0.53960  0.89080  Biso   1.000  O 
  O10      1.0000 0.53960  0.34200  0.89080  Biso   1.000  O 
  O11      1.0000 0.46040  0.80240  0.89080  Biso   1.000  O 
  C16      1.0000 0.48670  0.89810  0.93890  Biso   1.000  C 
  C17      1.0000 0.57470  0.00000  0.89010  Biso   1.000  C 
  Br6      1.0000 0.67351  0.00000  0.75033  Biso   1.000  Br
  C18      1.0000 0.58860  0.10190  0.93890  Biso   1.000  C 
  O12      1.0000 0.65800  0.19760  0.89080  Biso   1.000  O 
