data_image0
_cell_length_a       14.345
_cell_length_b       5.234
_cell_length_c       9.78
_cell_angle_alpha    90
_cell_angle_beta     90
_cell_angle_gamma    90

_symmetry_space_group_name_H-M    "P 1"
_symmetry_int_tables_number       1

loop_
  _symmetry_equiv_pos_as_xyz
  'x, y, z'

loop_
  _atom_site_label
  _atom_site_occupancy
  _atom_site_fract_x
  _atom_site_fract_y
  _atom_site_fract_z
  _atom_site_thermal_displace_type
  _atom_site_B_iso_or_equiv
  _atom_site_type_symbol
  Co1      1.0000 0.43560  0.37820  0.50450  Biso   1.000  Co
  N1       1.0000 0.32020  0.25980  0.38500  Biso   1.000  N 
  C1       1.0000 0.24770  0.45750  0.39080  Biso   1.000  C 
  H1       1.0000 0.18229  0.36750  0.42035  Biso   1.000  H 
  H2       1.0000 0.24046  0.54115  0.28940  Biso   1.000  H 
  C2       1.0000 0.26860  0.66950  0.49130  Biso   1.000  C 
  O1       1.0000 0.34440  0.66830  0.55400  Biso   1.000  O 
  O2       1.0000 0.20880  0.84030  0.50260  Biso   1.000  O 
  H3       1.0000 0.29445  0.09397  0.42333  Biso   1.000  H 
  C3       1.0000 0.35740  0.21370  0.24660  Biso   1.000  C 
  H4       1.0000 0.30129  0.23317  0.17232  Biso   1.000  H 
  H5       1.0000 0.38590  0.02109  0.24147  Biso   1.000  H 
  C4       1.0000 0.43320  0.40350  0.21380  Biso   1.000  C 
  O3       1.0000 0.46720  0.53630  0.30680  Biso   1.000  O 
  O4       1.0000 0.45860  0.41040  0.08960  Biso   1.000  O 
  Co2      1.0000 0.56440  0.62180  0.00450  Biso   1.000  Co
  O5       1.0000 0.65560  0.33170  0.05400  Biso   1.000  O 
  C5       1.0000 0.73140  0.33050  0.99130  Biso   1.000  C 
  O6       1.0000 0.79120  0.15970  0.00260  Biso   1.000  O 
  C6       1.0000 0.75230  0.54250  0.89080  Biso   1.000  C 
  H6       1.0000 0.81771  0.63250  0.92034  Biso   1.000  H 
  H7       1.0000 0.75954  0.45885  0.78940  Biso   1.000  H 
  N2       1.0000 0.67980  0.74020  0.88500  Biso   1.000  N 
  H8       1.0000 0.70555  0.90603  0.92332  Biso   1.000  H 
  C7       1.0000 0.64260  0.78630  0.74660  Biso   1.000  C 
  H9       1.0000 0.61410  0.97891  0.74147  Biso   1.000  H 
  C8       1.0000 0.56680  0.59650  0.71380  Biso   1.000  C 
  O7       1.0000 0.53280  0.46370  0.80680  Biso   1.000  O 
  O8       1.0000 0.54140  0.58960  0.58960  Biso   1.000  O 
  H10      1.0000 0.69871  0.76683  0.67232  Biso   1.000  H 
  O9       1.0000 0.60540  0.86010  0.16980  Biso   1.000  O 
  H11      1.0000 0.67284  0.90018  0.16175  Biso   1.000  H 
  H12      1.0000 0.56884  0.02113  0.16731  Biso   1.000  H 
  O10      1.0000 0.46980  0.92170  0.94410  Biso   1.000  O 
  H13      1.0000 0.41700  0.84691  0.89204  Biso   1.000  H 
  H14      1.0000 0.44559  0.00944  0.02683  Biso   1.000  H 
  O11      1.0000 0.39460  0.13990  0.66980  Biso   1.000  O 
  H15      1.0000 0.32716  0.09982  0.66175  Biso   1.000  H 
  H16      1.0000 0.43116  0.97887  0.66731  Biso   1.000  H 
  O12      1.0000 0.53020  0.07830  0.44410  Biso   1.000  O 
  H17      1.0000 0.58300  0.15309  0.39204  Biso   1.000  H 
  H18      1.0000 0.55441  0.99056  0.52683  Biso   1.000  H 
