data_image0
_cell_length_a       26.316
_cell_length_b       11.46
_cell_length_c       24.945
_cell_angle_alpha    90
_cell_angle_beta     105.34
_cell_angle_gamma    90

_symmetry_space_group_name_H-M    "P 1"
_symmetry_int_tables_number       1

loop_
  _symmetry_equiv_pos_as_xyz
  'x, y, z'

loop_
  _atom_site_label
  _atom_site_occupancy
  _atom_site_fract_x
  _atom_site_fract_y
  _atom_site_fract_z
  _atom_site_thermal_displace_type
  _atom_site_B_iso_or_equiv
  _atom_site_type_symbol
  Zn1      1.0000 0.35879  0.00184  0.25316  Biso   1.000  Zn
  O1       1.0000 0.39684  0.00530  0.19098  Biso   1.000  O 
  C1       1.0000 0.37640  0.04500  0.14180  Biso   1.000  C 
  C2       1.0000 0.32350  0.06740  0.11970  Biso   1.000  C 
  H1       1.0000 0.31350  0.10710  0.08500  Biso   1.000  H 
  C3       1.0000 0.28320  0.03640  0.14420  Biso   1.000  C 
  C4       1.0000 0.22660  0.03320  0.10960  Biso   1.000  C 
  C5       1.0000 0.20510  0.12900  0.07910  Biso   1.000  C 
  C6       1.0000 0.15200  0.12810  0.04840  Biso   1.000  C 
  C7       1.0000 0.12400  0.03190  0.04660  Biso   1.000  C 
  H2       1.0000 0.08820  0.03350  0.02540  Biso   1.000  H 
  C8       1.0000 0.14320  0.92730  0.07390  Biso   1.000  C 
  H3       1.0000 0.12210  0.85910  0.07100  Biso   1.000  H 
  C9       1.0000 0.19600  0.93080  0.10600  Biso   1.000  C 
  H4       1.0000 0.21130  0.86290  0.12560  Biso   1.000  H 
  H5       1.0000 0.13640  0.19600  0.02900  Biso   1.000  H 
  H6       1.0000 0.22610  0.19620  0.07870  Biso   1.000  H 
  O2       1.0000 0.28826  0.99620  0.19260  Biso   1.000  O 
  C10      1.0000 0.41620  0.06680  0.10860  Biso   1.000  C 
  C11      1.0000 0.46850  0.05760  0.13520  Biso   1.000  C 
  H7       1.0000 0.47850  0.04130  0.17390  Biso   1.000  H 
  C12      1.0000 0.50820  0.07150  0.10710  Biso   1.000  C 
  C13      1.0000 0.49170  0.09620  0.05000  Biso   1.000  C 
  C14      1.0000 0.43900  0.10160  0.02300  Biso   1.000  C 
  C15      1.0000 0.40070  0.08900  0.05120  Biso   1.000  C 
  H8       1.0000 0.36440  0.09530  0.03200  Biso   1.000  H 
  H9       1.0000 0.42870  0.11440  0.98400  Biso   1.000  H 
  H10      1.0000 0.51720  0.10930  0.02990  Biso   1.000  H 
  C16      1.0000 0.56400  0.05310  0.13870  Biso   1.000  C 
  C17      1.0000 0.60470  0.07790  0.11400  Biso   1.000  C 
  H11      1.0000 0.59530  0.11640  0.07910  Biso   1.000  H 
  C18      1.0000 0.65910  0.05050  0.13670  Biso   1.000  C 
  C19      1.0000 0.69840  0.07060  0.10310  Biso   1.000  C 
  C20      1.0000 0.75090  0.06560  0.12910  Biso   1.000  C 
  H12      1.0000 0.76200  0.05320  0.16810  Biso   1.000  H 
  C21      1.0000 0.78710  0.07790  0.10070  Biso   1.000  C 
  C22      1.0000 0.77370  0.09650  0.04410  Biso   1.000  C 
  C23      1.0000 0.72130  0.10160  0.01670  Biso   1.000  C 
  C24      1.0000 0.68300  0.09200  0.04570  Biso   1.000  C 
  H13      1.0000 0.64670  0.10000  0.02680  Biso   1.000  H 
  H14      1.0000 0.71100  0.11170  0.97750  Biso   1.000  H 
  H15      1.0000 0.80000  0.10550  0.02470  Biso   1.000  H 
  H16      1.0000 0.82340  0.07370  0.12020  Biso   1.000  H 
  O3       1.0000 0.67901  0.01100  0.18450  Biso   1.000  O 
  Zn2      1.0000 0.64121  0.00184  0.24684  Biso   1.000  Zn
  O4       1.0000 0.57084  0.01220  0.18717  Biso   1.000  O 
  O5       1.0000 0.60316  0.00530  0.30902  Biso   1.000  O 
  C25      1.0000 0.62360  0.04500  0.35820  Biso   1.000  C 
  C26      1.0000 0.67650  0.06740  0.38030  Biso   1.000  C 
  C27      1.0000 0.71680  0.03640  0.35580  Biso   1.000  C 
  C28      1.0000 0.77340  0.03320  0.39040  Biso   1.000  C 
  C29      1.0000 0.79490  0.12900  0.42090  Biso   1.000  C 
  H17      1.0000 0.77390  0.19620  0.42130  Biso   1.000  H 
  C30      1.0000 0.84800  0.12810  0.45160  Biso   1.000  C 
  H18      1.0000 0.86360  0.19600  0.47100  Biso   1.000  H 
  C31      1.0000 0.87600  0.03190  0.45340  Biso   1.000  C 
  H19      1.0000 0.91180  0.03350  0.47460  Biso   1.000  H 
  C32      1.0000 0.85680  0.92730  0.42610  Biso   1.000  C 
  C33      1.0000 0.80400  0.93080  0.39400  Biso   1.000  C 
  H20      1.0000 0.78870  0.86290  0.37440  Biso   1.000  H 
  H21      1.0000 0.87790  0.85910  0.42900  Biso   1.000  H 
  O6       1.0000 0.71174  0.99620  0.30740  Biso   1.000  O 
  H22      1.0000 0.68650  0.10710  0.41500  Biso   1.000  H 
  C34      1.0000 0.58380  0.06680  0.39140  Biso   1.000  C 
  C35      1.0000 0.53150  0.05760  0.36480  Biso   1.000  C 
  H23      1.0000 0.52150  0.04130  0.32610  Biso   1.000  H 
  C36      1.0000 0.49180  0.07150  0.39290  Biso   1.000  C 
  C37      1.0000 0.50830  0.09620  0.45000  Biso   1.000  C 
  H24      1.0000 0.48280  0.10930  0.47010  Biso   1.000  H 
  C38      1.0000 0.56100  0.10160  0.47700  Biso   1.000  C 
  C39      1.0000 0.59930  0.08900  0.44880  Biso   1.000  C 
  H25      1.0000 0.63560  0.09530  0.46800  Biso   1.000  H 
  H26      1.0000 0.57130  0.11440  0.51600  Biso   1.000  H 
  C40      1.0000 0.43600  0.05310  0.36130  Biso   1.000  C 
  C41      1.0000 0.39530  0.07790  0.38600  Biso   1.000  C 
  H27      1.0000 0.40470  0.11640  0.42090  Biso   1.000  H 
  C42      1.0000 0.34090  0.05050  0.36330  Biso   1.000  C 
  C43      1.0000 0.30160  0.07060  0.39690  Biso   1.000  C 
  C44      1.0000 0.24910  0.06560  0.37090  Biso   1.000  C 
  C45      1.0000 0.21290  0.07790  0.39930  Biso   1.000  C 
  H28      1.0000 0.17660  0.07370  0.37980  Biso   1.000  H 
  C46      1.0000 0.22630  0.09650  0.45590  Biso   1.000  C 
  H29      1.0000 0.20000  0.10550  0.47530  Biso   1.000  H 
  C47      1.0000 0.27870  0.10160  0.48330  Biso   1.000  C 
  C48      1.0000 0.31700  0.09200  0.45430  Biso   1.000  C 
  H30      1.0000 0.35330  0.10000  0.47320  Biso   1.000  H 
  H31      1.0000 0.28900  0.11170  0.52250  Biso   1.000  H 
  H32      1.0000 0.23800  0.05320  0.33190  Biso   1.000  H 
  O7       1.0000 0.32099  0.01100  0.31550  Biso   1.000  O 
  O8       1.0000 0.42916  0.01220  0.31283  Biso   1.000  O 
  N1       1.0000 0.64262  0.19590  0.24900  Biso   1.000  N 
  C49      1.0000 0.59726  0.25600  0.25090  Biso   1.000  C 
  H33      1.0000 0.56690  0.21390  0.25350  Biso   1.000  H 
  C50      1.0000 0.59590  0.37510  0.24900  Biso   1.000  C 
  C51      1.0000 0.63960  0.43900  0.24500  Biso   1.000  C 
  C52      1.0000 0.68440  0.37830  0.24290  Biso   1.000  C 
  C53      1.0000 0.68444  0.25800  0.24540  Biso   1.000  C 
  H34      1.0000 0.71570  0.21760  0.24440  Biso   1.000  H 
  H35      1.0000 0.71490  0.41910  0.23990  Biso   1.000  H 
  C54      1.0000 0.63760  0.57190  0.24260  Biso   1.000  C 
  C55      1.0000 0.60060  0.63250  0.26050  Biso   1.000  C 
  H36      1.0000 0.57470  0.59290  0.27390  Biso   1.000  H 
  C56      1.0000 0.60170  0.75440  0.25860  Biso   1.000  C 
  H37      1.0000 0.57570  0.79570  0.27110  Biso   1.000  H 
  N2       1.0000 0.63550  0.81480  0.24100  Biso   1.000  N 
  C57      1.0000 0.67254  0.75360  0.22140  Biso   1.000  C 
  H38      1.0000 0.69770  0.79510  0.20760  Biso   1.000  H 
  C58      1.0000 0.67320  0.63240  0.22180  Biso   1.000  C 
  H39      1.0000 0.69820  0.59140  0.20770  Biso   1.000  H 
  H40      1.0000 0.56460  0.41490  0.25040  Biso   1.000  H 
  N3       1.0000 0.35738  0.19590  0.25100  Biso   1.000  N 
  C59      1.0000 0.40274  0.25600  0.24910  Biso   1.000  C 
  H41      1.0000 0.43310  0.21390  0.24650  Biso   1.000  H 
  C60      1.0000 0.40410  0.37510  0.25100  Biso   1.000  C 
  H42      1.0000 0.43540  0.41490  0.24960  Biso   1.000  H 
  C61      1.0000 0.36040  0.43900  0.25500  Biso   1.000  C 
  C62      1.0000 0.31560  0.37830  0.25710  Biso   1.000  C 
  C63      1.0000 0.31556  0.25800  0.25460  Biso   1.000  C 
  H43      1.0000 0.28430  0.21760  0.25560  Biso   1.000  H 
  H44      1.0000 0.28510  0.41910  0.26010  Biso   1.000  H 
  C64      1.0000 0.36240  0.57190  0.25740  Biso   1.000  C 
  C65      1.0000 0.39940  0.63250  0.23950  Biso   1.000  C 
  H45      1.0000 0.42530  0.59290  0.22610  Biso   1.000  H 
  C66      1.0000 0.39830  0.75440  0.24140  Biso   1.000  C 
  H46      1.0000 0.42430  0.79570  0.22890  Biso   1.000  H 
  N4       1.0000 0.36450  0.81480  0.25900  Biso   1.000  N 
  C67      1.0000 0.32746  0.75360  0.27860  Biso   1.000  C 
  H47      1.0000 0.30230  0.79510  0.29240  Biso   1.000  H 
  C68      1.0000 0.32680  0.63240  0.27820  Biso   1.000  C 
  H48      1.0000 0.30180  0.59140  0.29230  Biso   1.000  H 
