data_image0
_cell_length_a       28.607
_cell_length_b       8.9767
_cell_length_c       19.705
_cell_angle_alpha    90
_cell_angle_beta     125.396
_cell_angle_gamma    90

_symmetry_space_group_name_H-M    "P 1"
_symmetry_int_tables_number       1

loop_
  _symmetry_equiv_pos_as_xyz
  'x, y, z'

loop_
  _atom_site_label
  _atom_site_occupancy
  _atom_site_fract_x
  _atom_site_fract_y
  _atom_site_fract_z
  _atom_site_thermal_displace_type
  _atom_site_B_iso_or_equiv
  _atom_site_type_symbol
  Zn1      1.0000 0.14736  0.91267  0.15668  Biso   1.000  Zn
  N1       1.0000 0.06535  0.90580  0.13149  Biso   1.000  N 
  C1       1.0000 0.04984  0.78700  0.15425  Biso   1.000  C 
  C2       1.0000 0.00030  0.78640  0.15160  Biso   1.000  C 
  H1       1.0000 0.98940  0.70130  0.16610  Biso   1.000  H 
  C3       1.0000 0.96693  0.91580  0.12681  Biso   1.000  C 
  C4       1.0000 0.91684  0.92230  0.13167  Biso   1.000  C 
  C5       1.0000 0.87861  0.80340  0.10510  Biso   1.000  C 
  H2       1.0000 0.88350  0.71930  0.08230  Biso   1.000  H 
  C6       1.0000 0.83343  0.80980  0.11250  Biso   1.000  C 
  H3       1.0000 0.80660  0.73310  0.09100  Biso   1.000  H 
  C7       1.0000 0.82774  0.92930  0.15145  Biso   1.000  C 
  C8       1.0000 0.78035  0.93010  0.16440  Biso   1.000  C 
  O1       1.0000 0.79255  0.98850  0.23228  Biso   1.000  O 
  Zn2      1.0000 0.85264  0.91267  0.34332  Biso   1.000  Zn
  N2       1.0000 0.85996  0.68610  0.30673  Biso   1.000  N 
  C9       1.0000 0.82151  0.57600  0.27580  Biso   1.000  C 
  C10      1.0000 0.83142  0.44240  0.25160  Biso   1.000  C 
  H4       1.0000 0.80310  0.36960  0.22910  Biso   1.000  H 
  N3       1.0000 0.88035  0.41340  0.25940  Biso   1.000  N 
  C11      1.0000 0.91903  0.52420  0.29230  Biso   1.000  C 
  H5       1.0000 0.95410  0.50860  0.30050  Biso   1.000  H 
  C12      1.0000 0.90927  0.65890  0.31441  Biso   1.000  C 
  C13      1.0000 0.95016  0.78700  0.34575  Biso   1.000  C 
  C14      1.0000 0.99970  0.78640  0.34840  Biso   1.000  C 
  H6       1.0000 0.01060  0.70130  0.33390  Biso   1.000  H 
  C15      1.0000 0.03307  0.91580  0.37319  Biso   1.000  C 
  C16      1.0000 0.08316  0.92230  0.36833  Biso   1.000  C 
  C17      1.0000 0.12139  0.80340  0.39490  Biso   1.000  C 
  H7       1.0000 0.11650  0.71930  0.41770  Biso   1.000  H 
  C18      1.0000 0.16657  0.80980  0.38750  Biso   1.000  C 
  H8       1.0000 0.19340  0.73310  0.40900  Biso   1.000  H 
  C19      1.0000 0.17226  0.92930  0.34855  Biso   1.000  C 
  C20      1.0000 0.21965  0.93010  0.33560  Biso   1.000  C 
  O2       1.0000 0.20745  0.98850  0.26772  Biso   1.000  O 
  O3       1.0000 0.26612  0.87590  0.39001  Biso   1.000  O 
  C21      1.0000 0.13405  0.04700  0.32100  Biso   1.000  C 
  H9       1.0000 0.13740  0.12740  0.29430  Biso   1.000  H 
  C22      1.0000 0.09065  0.04540  0.33300  Biso   1.000  C 
  H10      1.0000 0.06650  0.12730  0.31720  Biso   1.000  H 
  C23      1.0000 0.01614  0.03890  0.39730  Biso   1.000  C 
  H11      1.0000 0.03770  0.12600  0.41490  Biso   1.000  H 
  C24      1.0000 0.96690  0.02990  0.39469  Biso   1.000  C 
  C25      1.0000 0.94356  0.15430  0.41710  Biso   1.000  C 
  C26      1.0000 0.97061  0.28820  0.45200  Biso   1.000  C 
  H12      1.0000 0.00690  0.30360  0.46440  Biso   1.000  H 
  N4       1.0000 0.94654  0.39750  0.46892  Biso   1.000  N 
  C27      1.0000 0.89450  0.36910  0.45030  Biso   1.000  C 
  H13      1.0000 0.87600  0.44210  0.46010  Biso   1.000  H 
  C28      1.0000 0.86726  0.23390  0.41680  Biso   1.000  C 
  H14      1.0000 0.83130  0.21800  0.40560  Biso   1.000  H 
  N5       1.0000 0.89121  0.12670  0.40040  Biso   1.000  N 
  N6       1.0000 0.93465  0.90580  0.36851  Biso   1.000  N 
  H15      1.0000 0.78730  0.58970  0.27050  Biso   1.000  H 
  O4       1.0000 0.81191  0.88110  0.39345  Biso   1.000  O 
  C29      1.0000 0.82863  0.78980  0.45300  Biso   1.000  C 
  O5       1.0000 0.87486  0.71920  0.48937  Biso   1.000  O 
  C30      1.0000 0.78802  0.76850  0.47791  Biso   1.000  C 
  C31      1.0000 0.78954  0.64020  0.51810  Biso   1.000  C 
  H16      1.0000 0.81620  0.56620  0.53050  Biso   1.000  H 
  C32      1.0000 0.75186  0.62090  0.54000  Biso   1.000  C 
  H17      1.0000 0.75320  0.53400  0.56670  Biso   1.000  H 
  C33      1.0000 0.71198  0.73150  0.52209  Biso   1.000  C 
  C34      1.0000 0.71046  0.85980  0.48190  Biso   1.000  C 
  H18      1.0000 0.68380  0.93380  0.46950  Biso   1.000  H 
  C35      1.0000 0.74814  0.87910  0.46000  Biso   1.000  C 
  H19      1.0000 0.74680  0.96600  0.43330  Biso   1.000  H 
  C36      1.0000 0.67137  0.71020  0.54700  Biso   1.000  C 
  O6       1.0000 0.68809  0.61890  0.60655  Biso   1.000  O 
  Zn3      1.0000 0.64736  0.58733  0.65668  Biso   1.000  Zn
  N7       1.0000 0.56535  0.59420  0.63149  Biso   1.000  N 
  C37      1.0000 0.54984  0.71300  0.65425  Biso   1.000  C 
  C38      1.0000 0.50030  0.71360  0.65160  Biso   1.000  C 
  C39      1.0000 0.46693  0.58420  0.62681  Biso   1.000  C 
  C40      1.0000 0.41684  0.57770  0.63167  Biso   1.000  C 
  C41      1.0000 0.37861  0.69660  0.60510  Biso   1.000  C 
  H20      1.0000 0.38350  0.78070  0.58230  Biso   1.000  H 
  C42      1.0000 0.33343  0.69020  0.61250  Biso   1.000  C 
  H21      1.0000 0.30660  0.76690  0.59100  Biso   1.000  H 
  C43      1.0000 0.32774  0.57070  0.65145  Biso   1.000  C 
  C44      1.0000 0.28035  0.56990  0.66440  Biso   1.000  C 
  O7       1.0000 0.29255  0.51150  0.73228  Biso   1.000  O 
  Zn4      1.0000 0.35264  0.58733  0.84332  Biso   1.000  Zn
  N8       1.0000 0.39121  0.37330  0.90040  Biso   1.000  N 
  C45      1.0000 0.36726  0.26610  0.91680  Biso   1.000  C 
  H22      1.0000 0.33130  0.28200  0.90560  Biso   1.000  H 
  C46      1.0000 0.39450  0.13090  0.95030  Biso   1.000  C 
  H23      1.0000 0.37600  0.05790  0.96010  Biso   1.000  H 
  N9       1.0000 0.44654  0.10250  0.96892  Biso   1.000  N 
  C47      1.0000 0.47061  0.21180  0.95200  Biso   1.000  C 
  H24      1.0000 0.50690  0.19640  0.96440  Biso   1.000  H 
  C48      1.0000 0.44356  0.34570  0.91710  Biso   1.000  C 
  C49      1.0000 0.46690  0.47010  0.89469  Biso   1.000  C 
  N10      1.0000 0.43465  0.59420  0.86851  Biso   1.000  N 
  C50      1.0000 0.45016  0.71300  0.84575  Biso   1.000  C 
  C51      1.0000 0.49970  0.71360  0.84840  Biso   1.000  C 
  C52      1.0000 0.53307  0.58420  0.87319  Biso   1.000  C 
  C53      1.0000 0.51614  0.46110  0.89730  Biso   1.000  C 
  H25      1.0000 0.53770  0.37400  0.91490  Biso   1.000  H 
  C54      1.0000 0.58316  0.57770  0.86833  Biso   1.000  C 
  C55      1.0000 0.62139  0.69660  0.89490  Biso   1.000  C 
  H26      1.0000 0.61650  0.78070  0.91770  Biso   1.000  H 
  C56      1.0000 0.66657  0.69020  0.88750  Biso   1.000  C 
  H27      1.0000 0.69340  0.76690  0.90900  Biso   1.000  H 
  C57      1.0000 0.67226  0.57070  0.84855  Biso   1.000  C 
  C58      1.0000 0.71965  0.56990  0.83560  Biso   1.000  C 
  O8       1.0000 0.70745  0.51150  0.76772  Biso   1.000  O 
  O9       1.0000 0.76612  0.62410  0.89001  Biso   1.000  O 
  C59      1.0000 0.63405  0.45300  0.82100  Biso   1.000  C 
  H28      1.0000 0.63740  0.37260  0.79430  Biso   1.000  H 
  C60      1.0000 0.59065  0.45460  0.83300  Biso   1.000  C 
  H29      1.0000 0.56650  0.37270  0.81720  Biso   1.000  H 
  H30      1.0000 0.51060  0.79870  0.83390  Biso   1.000  H 
  C61      1.0000 0.40927  0.84110  0.81441  Biso   1.000  C 
  N11      1.0000 0.35996  0.81390  0.80673  Biso   1.000  N 
  C62      1.0000 0.32151  0.92400  0.77580  Biso   1.000  C 
  H31      1.0000 0.28730  0.91030  0.77050  Biso   1.000  H 
  C63      1.0000 0.33142  0.05760  0.75160  Biso   1.000  C 
  H32      1.0000 0.30310  0.13040  0.72910  Biso   1.000  H 
  N12      1.0000 0.38035  0.08660  0.75940  Biso   1.000  N 
  C64      1.0000 0.41903  0.97580  0.79230  Biso   1.000  C 
  H33      1.0000 0.45410  0.99140  0.80050  Biso   1.000  H 
  O10      1.0000 0.31191  0.61890  0.89345  Biso   1.000  O 
  C65      1.0000 0.32863  0.71020  0.95300  Biso   1.000  C 
  O11      1.0000 0.37486  0.78080  0.98937  Biso   1.000  O 
  C66      1.0000 0.28802  0.73150  0.97791  Biso   1.000  C 
  C67      1.0000 0.28954  0.85980  0.01810  Biso   1.000  C 
  H34      1.0000 0.31620  0.93380  0.03050  Biso   1.000  H 
  C68      1.0000 0.25186  0.87910  0.04000  Biso   1.000  C 
  H35      1.0000 0.25320  0.96600  0.06670  Biso   1.000  H 
  C69      1.0000 0.21198  0.76850  0.02209  Biso   1.000  C 
  C70      1.0000 0.21046  0.64020  0.98190  Biso   1.000  C 
  H36      1.0000 0.18380  0.56620  0.96950  Biso   1.000  H 
  C71      1.0000 0.24814  0.62090  0.96000  Biso   1.000  C 
  H37      1.0000 0.24680  0.53400  0.93330  Biso   1.000  H 
  C72      1.0000 0.17137  0.78980  0.04700  Biso   1.000  C 
  O12      1.0000 0.18809  0.88110  0.10655  Biso   1.000  O 
  O13      1.0000 0.12514  0.71920  0.01063  Biso   1.000  O 
  O14      1.0000 0.23388  0.62410  0.60999  Biso   1.000  O 
  C73      1.0000 0.36595  0.45300  0.67900  Biso   1.000  C 
  H38      1.0000 0.36260  0.37260  0.70570  Biso   1.000  H 
  C74      1.0000 0.40935  0.45460  0.66700  Biso   1.000  C 
  H39      1.0000 0.43350  0.37270  0.68280  Biso   1.000  H 
  C75      1.0000 0.48386  0.46110  0.60270  Biso   1.000  C 
  H40      1.0000 0.46230  0.37400  0.58510  Biso   1.000  H 
  C76      1.0000 0.53310  0.47010  0.60531  Biso   1.000  C 
  C77      1.0000 0.55644  0.34570  0.58290  Biso   1.000  C 
  C78      1.0000 0.52939  0.21180  0.54800  Biso   1.000  C 
  H41      1.0000 0.49310  0.19640  0.53560  Biso   1.000  H 
  N13      1.0000 0.55346  0.10250  0.53108  Biso   1.000  N 
  C79      1.0000 0.60550  0.13090  0.54970  Biso   1.000  C 
  C80      1.0000 0.63274  0.26610  0.58320  Biso   1.000  C 
  H42      1.0000 0.66870  0.28200  0.59440  Biso   1.000  H 
  N14      1.0000 0.60879  0.37330  0.59960  Biso   1.000  N 
  H43      1.0000 0.62400  0.05790  0.53990  Biso   1.000  H 
  H44      1.0000 0.48940  0.79870  0.66610  Biso   1.000  H 
  C81      1.0000 0.59073  0.84110  0.68559  Biso   1.000  C 
  N15      1.0000 0.64004  0.81390  0.69327  Biso   1.000  N 
  C82      1.0000 0.67849  0.92400  0.72420  Biso   1.000  C 
  H45      1.0000 0.71270  0.91030  0.72950  Biso   1.000  H 
  C83      1.0000 0.66858  0.05760  0.74840  Biso   1.000  C 
  H46      1.0000 0.69690  0.13040  0.77090  Biso   1.000  H 
  N16      1.0000 0.61965  0.08660  0.74060  Biso   1.000  N 
  C84      1.0000 0.58097  0.97580  0.70770  Biso   1.000  C 
  H47      1.0000 0.54590  0.99140  0.69950  Biso   1.000  H 
  O15      1.0000 0.62514  0.78080  0.51063  Biso   1.000  O 
  O16      1.0000 0.73388  0.87590  0.10999  Biso   1.000  O 
  C85      1.0000 0.86595  0.04700  0.17900  Biso   1.000  C 
  H48      1.0000 0.86260  0.12740  0.20570  Biso   1.000  H 
  C86      1.0000 0.90935  0.04540  0.16700  Biso   1.000  C 
  H49      1.0000 0.93350  0.12730  0.18280  Biso   1.000  H 
  C87      1.0000 0.98386  0.03890  0.10270  Biso   1.000  C 
  H50      1.0000 0.96230  0.12600  0.08510  Biso   1.000  H 
  C88      1.0000 0.03310  0.02990  0.10531  Biso   1.000  C 
  C89      1.0000 0.05644  0.15430  0.08290  Biso   1.000  C 
  C90      1.0000 0.02939  0.28820  0.04800  Biso   1.000  C 
  N17      1.0000 0.05346  0.39750  0.03108  Biso   1.000  N 
  C91      1.0000 0.10550  0.36910  0.04970  Biso   1.000  C 
  C92      1.0000 0.13274  0.23390  0.08320  Biso   1.000  C 
  H51      1.0000 0.16870  0.21800  0.09440  Biso   1.000  H 
  N18      1.0000 0.10879  0.12670  0.09960  Biso   1.000  N 
  H52      1.0000 0.12400  0.44210  0.03990  Biso   1.000  H 
  H53      1.0000 0.99310  0.30360  0.03560  Biso   1.000  H 
  C93      1.0000 0.09073  0.65890  0.18559  Biso   1.000  C 
  N19      1.0000 0.14004  0.68610  0.19327  Biso   1.000  N 
  C94      1.0000 0.17849  0.57600  0.22420  Biso   1.000  C 
  C95      1.0000 0.16858  0.44240  0.24840  Biso   1.000  C 
  H54      1.0000 0.19690  0.36960  0.27090  Biso   1.000  H 
  N20      1.0000 0.11965  0.41340  0.24060  Biso   1.000  N 
  C96      1.0000 0.08097  0.52420  0.20770  Biso   1.000  C 
  H55      1.0000 0.04590  0.50860  0.19950  Biso   1.000  H 
  H56      1.0000 0.21270  0.58970  0.22950  Biso   1.000  H 
