data_image0
_cell_length_a       14.782
_cell_length_b       24.38
_cell_length_c       7.723
_cell_angle_alpha    90
_cell_angle_beta     97.76
_cell_angle_gamma    90

_symmetry_space_group_name_H-M    "P 1"
_symmetry_int_tables_number       1

loop_
  _symmetry_equiv_pos_as_xyz
  'x, y, z'

loop_
  _atom_site_label
  _atom_site_occupancy
  _atom_site_fract_x
  _atom_site_fract_y
  _atom_site_fract_z
  _atom_site_thermal_displace_type
  _atom_site_B_iso_or_equiv
  _atom_site_type_symbol
  C1       1.0000 0.85255  0.16412  0.78884  Biso   1.000  C 
  C2       1.0000 0.77117  0.14715  0.69542  Biso   1.000  C 
  O1       1.0000 0.77157  0.11635  0.55810  Biso   1.000  O 
  C3       1.0000 0.84003  0.12318  0.46072  Biso   1.000  C 
  H1       1.0000 0.85923  0.16040  0.46792  Biso   1.000  H 
  H2       1.0000 0.81851  0.11395  0.34283  Biso   1.000  H 
  H3       1.0000 0.88939  0.09988  0.50449  Biso   1.000  H 
  C4       1.0000 0.68937  0.16288  0.74777  Biso   1.000  C 
  H4       1.0000 0.63335  0.15120  0.68345  Biso   1.000  H 
  C5       1.0000 0.68895  0.19558  0.89354  Biso   1.000  C 
  O2       1.0000 0.61189  0.21039  0.94285  Biso   1.000  O 
  C6       1.0000 0.60159  0.26355  0.98518  Biso   1.000  C 
  H5       1.0000 0.53843  0.27109  0.98365  Biso   1.000  H 
  H6       1.0000 0.62595  0.28605  0.90228  Biso   1.000  H 
  H7       1.0000 0.63331  0.27004  0.09870  Biso   1.000  H 
  C7       1.0000 0.77033  0.21255  0.98696  Biso   1.000  C 
  C8       1.0000 0.85213  0.19682  0.93461  Biso   1.000  C 
  C9       1.0000 0.94177  0.21551  0.03751  Biso   1.000  C 
  O3       1.0000 0.95310  0.21282  0.20065  Biso   1.000  O 
  Pr1      1.0000 0.12200  0.25000  0.23600  Biso   1.000  Pr
  O4       1.0000 0.24781  0.23654  0.00434  Biso   1.000  O 
  O5       1.0000 0.29690  0.24116  0.24388  Biso   1.000  O 
  C10      1.0000 0.30711  0.21456  0.11312  Biso   1.000  C 
  C11      1.0000 0.36530  0.16811  0.05694  Biso   1.000  C 
  C12      1.0000 0.40043  0.17147  0.90054  Biso   1.000  C 
  H8       1.0000 0.38825  0.20280  0.82799  Biso   1.000  H 
  C13      1.0000 0.45326  0.12930  0.84953  Biso   1.000  C 
  O6       1.0000 0.48636  0.13246  0.70220  Biso   1.000  O 
  C14      1.0000 0.45313  0.17169  0.58754  Biso   1.000  C 
  H9       1.0000 0.40546  0.15650  0.50696  Biso   1.000  H 
  H10      1.0000 0.50091  0.18447  0.52712  Biso   1.000  H 
  H11      1.0000 0.43018  0.20107  0.64972  Biso   1.000  H 
  C15      1.0000 0.47096  0.08379  0.95492  Biso   1.000  C 
  H12      1.0000 0.50733  0.05476  0.91981  Biso   1.000  H 
  C16      1.0000 0.43583  0.08043  0.11132  Biso   1.000  C 
  O7       1.0000 0.45250  0.03756  0.21060  Biso   1.000  O 
  C17      1.0000 0.40654  0.99088  0.16328  Biso   1.000  C 
  H13      1.0000 0.34307  0.99877  0.14197  Biso   1.000  H 
  H14      1.0000 0.41829  0.96488  0.25518  Biso   1.000  H 
  H15      1.0000 0.42668  0.97693  0.06015  Biso   1.000  H 
  C18      1.0000 0.38300  0.12260  0.16233  Biso   1.000  C 
  H16      1.0000 0.35882  0.12029  0.26999  Biso   1.000  H 
  Pr2      1.0000 0.12200  0.25000  0.73600  Biso   1.000  Pr
  C19      1.0000 0.11540  0.12813  0.79052  Biso   1.000  C 
  O8       1.0000 0.11063  0.14499  0.63668  Biso   1.000  O 
  O9       1.0000 0.09754  0.15981  0.90861  Biso   1.000  O 
  C20      1.0000 0.14293  0.06912  0.83398  Biso   1.000  C 
  C21      1.0000 0.11766  0.04445  0.98098  Biso   1.000  C 
  C22      1.0000 0.14266  0.99088  0.02044  Biso   1.000  C 
  O10      1.0000 0.11886  0.96763  0.15892  Biso   1.000  O 
  C23      1.0000 0.09445  0.00029  0.28599  Biso   1.000  C 
  H17      1.0000 0.04973  0.02569  0.23553  Biso   1.000  H 
  H18      1.0000 0.14683  0.01939  0.33989  Biso   1.000  H 
  H19      1.0000 0.07001  0.97824  0.36989  Biso   1.000  H 
  C24      1.0000 0.19291  0.96198  0.91290  Biso   1.000  C 
  H20      1.0000 0.21012  0.92510  0.94006  Biso   1.000  H 
  C25      1.0000 0.21818  0.98665  0.76590  Biso   1.000  C 
  O11      1.0000 0.26552  0.95943  0.66459  Biso   1.000  O 
  C26      1.0000 0.34827  0.94036  0.73396  Biso   1.000  C 
  H21      1.0000 0.34487  0.90168  0.74697  Biso   1.000  H 
  H22      1.0000 0.36529  0.95704  0.84474  Biso   1.000  H 
  H23      1.0000 0.39153  0.94923  0.65786  Biso   1.000  H 
  C27      1.0000 0.19318  0.04022  0.72644  Biso   1.000  C 
  H24      1.0000 0.21058  0.05721  0.62524  Biso   1.000  H 
  H25      1.0000 0.08307  0.06434  0.05502  Biso   1.000  H 
  O12      1.0000 0.29690  0.25884  0.74388  Biso   1.000  O 
  C28      1.0000 0.30711  0.28544  0.61312  Biso   1.000  C 
  O13      1.0000 0.24781  0.26346  0.50434  Biso   1.000  O 
  C29      1.0000 0.36530  0.33189  0.55694  Biso   1.000  C 
  C30      1.0000 0.40043  0.32853  0.40054  Biso   1.000  C 
  C31      1.0000 0.45326  0.37070  0.34953  Biso   1.000  C 
  O14      1.0000 0.48636  0.36754  0.20220  Biso   1.000  O 
  C32      1.0000 0.45313  0.32831  0.08754  Biso   1.000  C 
  H26      1.0000 0.50091  0.31553  0.02712  Biso   1.000  H 
  H27      1.0000 0.40546  0.34350  0.00696  Biso   1.000  H 
  H28      1.0000 0.43018  0.29893  0.14972  Biso   1.000  H 
  C33      1.0000 0.47096  0.41621  0.45492  Biso   1.000  C 
  H29      1.0000 0.50733  0.44524  0.41981  Biso   1.000  H 
  C34      1.0000 0.43583  0.41957  0.61132  Biso   1.000  C 
  O15      1.0000 0.45250  0.46244  0.71060  Biso   1.000  O 
  C35      1.0000 0.40654  0.50912  0.66328  Biso   1.000  C 
  H30      1.0000 0.34307  0.50123  0.64197  Biso   1.000  H 
  H31      1.0000 0.41829  0.53512  0.75518  Biso   1.000  H 
  H32      1.0000 0.42668  0.52307  0.56015  Biso   1.000  H 
  C36      1.0000 0.38300  0.37740  0.66233  Biso   1.000  C 
  H33      1.0000 0.35882  0.37971  0.76999  Biso   1.000  H 
  H34      1.0000 0.38825  0.29720  0.32799  Biso   1.000  H 
  C37      1.0000 0.94177  0.28449  0.53751  Biso   1.000  C 
  O16      1.0000 0.95310  0.28718  0.70065  Biso   1.000  O 
  O17      1.0000 0.00415  0.26643  0.45901  Biso   1.000  O 
  C38      1.0000 0.85213  0.30318  0.43461  Biso   1.000  C 
  C39      1.0000 0.85255  0.33588  0.28884  Biso   1.000  C 
  C40      1.0000 0.77117  0.35285  0.19542  Biso   1.000  C 
  C41      1.0000 0.68937  0.33712  0.24777  Biso   1.000  C 
  H35      1.0000 0.63335  0.34880  0.18345  Biso   1.000  H 
  C42      1.0000 0.68895  0.30442  0.39354  Biso   1.000  C 
  O18      1.0000 0.61189  0.28961  0.44285  Biso   1.000  O 
  C43      1.0000 0.60159  0.23645  0.48518  Biso   1.000  C 
  H36      1.0000 0.53843  0.22891  0.48365  Biso   1.000  H 
  H37      1.0000 0.62595  0.21395  0.40228  Biso   1.000  H 
  H38      1.0000 0.63331  0.22996  0.59870  Biso   1.000  H 
  C44      1.0000 0.77033  0.28745  0.48696  Biso   1.000  C 
  H39      1.0000 0.77004  0.26495  0.58731  Biso   1.000  H 
  O19      1.0000 0.77157  0.38365  0.05810  Biso   1.000  O 
  C45      1.0000 0.84003  0.37682  0.96072  Biso   1.000  C 
  H40      1.0000 0.81851  0.38605  0.84283  Biso   1.000  H 
  H41      1.0000 0.85923  0.33960  0.96792  Biso   1.000  H 
  H42      1.0000 0.88939  0.40012  0.00449  Biso   1.000  H 
  H43      1.0000 0.90887  0.34670  0.25281  Biso   1.000  H 
  O20      1.0000 0.00415  0.23357  0.95901  Biso   1.000  O 
  O21      1.0000 0.11063  0.35501  0.13668  Biso   1.000  O 
  C46      1.0000 0.11540  0.37187  0.29052  Biso   1.000  C 
  O22      1.0000 0.09754  0.34019  0.40861  Biso   1.000  O 
  C47      1.0000 0.14293  0.43088  0.33398  Biso   1.000  C 
  C48      1.0000 0.11766  0.45555  0.48098  Biso   1.000  C 
  H44      1.0000 0.08307  0.43566  0.55501  Biso   1.000  H 
  C49      1.0000 0.14266  0.50912  0.52044  Biso   1.000  C 
  C50      1.0000 0.19291  0.53802  0.41290  Biso   1.000  C 
  C51      1.0000 0.21818  0.51335  0.26590  Biso   1.000  C 
  C52      1.0000 0.19318  0.45978  0.22644  Biso   1.000  C 
  H45      1.0000 0.21058  0.44279  0.12524  Biso   1.000  H 
  O23      1.0000 0.26552  0.54058  0.16459  Biso   1.000  O 
  C53      1.0000 0.34827  0.55964  0.23396  Biso   1.000  C 
  H46      1.0000 0.36529  0.54296  0.34474  Biso   1.000  H 
  H47      1.0000 0.34487  0.59832  0.24697  Biso   1.000  H 
  H48      1.0000 0.39153  0.55077  0.15786  Biso   1.000  H 
  H49      1.0000 0.21012  0.57490  0.44006  Biso   1.000  H 
  O24      1.0000 0.11886  0.53237  0.65892  Biso   1.000  O 
  C54      1.0000 0.09445  0.49971  0.78599  Biso   1.000  C 
  H50      1.0000 0.04973  0.47431  0.73553  Biso   1.000  H 
  H51      1.0000 0.14683  0.48061  0.83989  Biso   1.000  H 
  H52      1.0000 0.07001  0.52176  0.86989  Biso   1.000  H 
  H53      1.0000 0.77004  0.23505  0.08731  Biso   1.000  H 
  H54      1.0000 0.90887  0.15330  0.75281  Biso   1.000  H 
