data_image0
_cell_length_a       17.2427
_cell_length_b       11.7453
_cell_length_c       21.1828
_cell_angle_alpha    90
_cell_angle_beta     90
_cell_angle_gamma    90

_symmetry_space_group_name_H-M    "P 1"
_symmetry_int_tables_number       1

loop_
  _symmetry_equiv_pos_as_xyz
  'x, y, z'

loop_
  _atom_site_label
  _atom_site_occupancy
  _atom_site_fract_x
  _atom_site_fract_y
  _atom_site_fract_z
  _atom_site_thermal_displace_type
  _atom_site_B_iso_or_equiv
  _atom_site_type_symbol
  Mn1      1.0000 0.14000  0.72699  0.71392  Biso   1.000  Mn
  N1       1.0000 0.20630  0.73070  0.62120  Biso   1.000  N 
  C1       1.0000 0.28550  0.76470  0.63050  Biso   1.000  C 
  H1       1.0000 0.29040  0.84580  0.62290  Biso   1.000  H 
  C2       1.0000 0.31210  0.73770  0.69730  Biso   1.000  C 
  O1       1.0000 0.38350  0.73980  0.70990  Biso   1.000  O 
  Mn2      1.0000 0.39286  0.73182  0.81458  Biso   1.000  Mn
  O2       1.0000 0.28570  0.73740  0.86890  Biso   1.000  O 
  H2       1.0000 0.25236  0.67191  0.85696  Biso   1.000  H 
  H3       1.0000 0.29797  0.73320  0.91464  Biso   1.000  H 
  N2       1.0000 0.45560  0.73660  0.90950  Biso   1.000  N 
  C3       1.0000 0.53600  0.78110  0.90040  Biso   1.000  C 
  C4       1.0000 0.56320  0.76070  0.83380  Biso   1.000  C 
  O3       1.0000 0.51610  0.73520  0.79190  Biso   1.000  O 
  O4       1.0000 0.63470  0.77550  0.82230  Biso   1.000  O 
  Mn3      1.0000 0.64000  0.77301  0.71392  Biso   1.000  Mn
  N3       1.0000 0.63450  0.96850  0.71950  Biso   1.000  N 
  C5       1.0000 0.67350  0.02520  0.76300  Biso   1.000  C 
  C6       1.0000 0.68150  0.14230  0.76400  Biso   1.000  C 
  C7       1.0000 0.64900  0.20740  0.71720  Biso   1.000  C 
  C8       1.0000 0.60900  0.14830  0.66950  Biso   1.000  C 
  C9       1.0000 0.60310  0.03200  0.67300  Biso   1.000  C 
  H4       1.0000 0.57580  0.99460  0.64140  Biso   1.000  H 
  H5       1.0000 0.58680  0.18770  0.63600  Biso   1.000  H 
  C10      1.0000 0.65390  0.33430  0.71580  Biso   1.000  C 
  C11      1.0000 0.63560  0.39750  0.66280  Biso   1.000  C 
  C12      1.0000 0.63440  0.51460  0.66530  Biso   1.000  C 
  H6       1.0000 0.61990  0.55420  0.62920  Biso   1.000  H 
  N4       1.0000 0.65290  0.57440  0.71680  Biso   1.000  N 
  C13      1.0000 0.67680  0.51530  0.76490  Biso   1.000  C 
  C14      1.0000 0.68000  0.39650  0.76680  Biso   1.000  C 
  H7       1.0000 0.69950  0.35960  0.80230  Biso   1.000  H 
  H8       1.0000 0.69300  0.55500  0.80050  Biso   1.000  H 
  H9       1.0000 0.62410  0.36060  0.62510  Biso   1.000  H 
  H10      1.0000 0.70890  0.17700  0.79650  Biso   1.000  H 
  H11      1.0000 0.69720  0.98360  0.79500  Biso   1.000  H 
  O5       1.0000 0.53140  0.76600  0.66090  Biso   1.000  O 
  H12      1.0000 0.48714  0.76110  0.69077  Biso   1.000  H 
  H13      1.0000 0.52617  0.83576  0.63476  Biso   1.000  H 
  N5       1.0000 0.70630  0.76930  0.62120  Biso   1.000  N 
  C15      1.0000 0.78550  0.73530  0.63050  Biso   1.000  C 
  C16      1.0000 0.81210  0.76230  0.69730  Biso   1.000  C 
  O6       1.0000 0.88350  0.76020  0.70990  Biso   1.000  O 
  Mn4      1.0000 0.89286  0.76818  0.81458  Biso   1.000  Mn
  O7       1.0000 0.78570  0.76260  0.86890  Biso   1.000  O 
  H14      1.0000 0.75236  0.82809  0.85696  Biso   1.000  H 
  H15      1.0000 0.79797  0.76680  0.91464  Biso   1.000  H 
  N6       1.0000 0.89500  0.96240  0.81280  Biso   1.000  N 
  C17      1.0000 0.86120  0.02410  0.85750  Biso   1.000  C 
  C18      1.0000 0.86310  0.14120  0.85960  Biso   1.000  C 
  H16      1.0000 0.83760  0.17960  0.89180  Biso   1.000  H 
  C19      1.0000 0.90250  0.20180  0.81410  Biso   1.000  C 
  C20      1.0000 0.93940  0.13820  0.76730  Biso   1.000  C 
  H17      1.0000 0.96760  0.17470  0.73580  Biso   1.000  H 
  C21      1.0000 0.93400  0.02070  0.76780  Biso   1.000  C 
  H18      1.0000 0.95830  0.97990  0.73580  Biso   1.000  H 
  C22      1.0000 0.90270  0.32800  0.81330  Biso   1.000  C 
  C23      1.0000 0.90670  0.39000  0.75770  Biso   1.000  C 
  H19      1.0000 0.91150  0.35190  0.71940  Biso   1.000  H 
  C24      1.0000 0.90370  0.50710  0.75830  Biso   1.000  C 
  H20      1.0000 0.90640  0.54610  0.72020  Biso   1.000  H 
  N7       1.0000 0.89690  0.56810  0.81270  Biso   1.000  N 
  C25      1.0000 0.89430  0.50860  0.86500  Biso   1.000  C 
  H21      1.0000 0.89050  0.54850  0.90280  Biso   1.000  H 
  C26      1.0000 0.89690  0.39030  0.86820  Biso   1.000  C 
  H22      1.0000 0.89470  0.35360  0.90710  Biso   1.000  H 
  H23      1.0000 0.83460  0.98590  0.88940  Biso   1.000  H 
  N8       1.0000 0.95560  0.76340  0.90950  Biso   1.000  N 
  C27      1.0000 0.03600  0.71890  0.90040  Biso   1.000  C 
  C28      1.0000 0.06320  0.73930  0.83380  Biso   1.000  C 
  O8       1.0000 0.13470  0.72450  0.82230  Biso   1.000  O 
  O9       1.0000 0.01610  0.76480  0.79190  Biso   1.000  O 
  H24      1.0000 0.07090  0.75640  0.92970  Biso   1.000  H 
  H25      1.0000 0.03700  0.63790  0.90940  Biso   1.000  H 
  S1       1.0000 0.92925  0.76295  0.97889  Biso   1.000  S 
  O10      1.0000 0.85005  0.80530  0.98120  Biso   1.000  O 
  C29      1.0000 0.98460  0.86690  0.02100  Biso   1.000  C 
  C30      1.0000 0.96500  0.98090  0.01490  Biso   1.000  C 
  C31      1.0000 0.00640  0.06300  0.04750  Biso   1.000  C 
  H26      1.0000 0.99340  0.13940  0.04300  Biso   1.000  H 
  C32      1.0000 0.06680  0.03190  0.08660  Biso   1.000  C 
  H27      1.0000 0.09370  0.08650  0.10960  Biso   1.000  H 
  C33      1.0000 0.08660  0.91850  0.09090  Biso   1.000  C 
  N9       1.0000 0.15370  0.88630  0.12970  Biso   1.000  N 
  O11      1.0000 0.16750  0.78520  0.13690  Biso   1.000  O 
  O12      1.0000 0.19170  0.96330  0.15380  Biso   1.000  O 
  C34      1.0000 0.04630  0.83410  0.05920  Biso   1.000  C 
  H28      1.0000 0.06010  0.75790  0.06340  Biso   1.000  H 
  H29      1.0000 0.92410  0.00210  0.98890  Biso   1.000  H 
  O13      1.0000 0.94290  0.65780  0.01210  Biso   1.000  O 
  O14      1.0000 0.76240  0.78230  0.73870  Biso   1.000  O 
  H30      1.0000 0.81840  0.77480  0.60050  Biso   1.000  H 
  H31      1.0000 0.79040  0.65420  0.62290  Biso   1.000  H 
  S2       1.0000 0.67885  0.76784  0.55019  Biso   1.000  S 
  O15      1.0000 0.69550  0.66280  0.51660  Biso   1.000  O 
  O16      1.0000 0.59880  0.80800  0.54620  Biso   1.000  O 
  C35      1.0000 0.73470  0.87290  0.50980  Biso   1.000  C 
  C36      1.0000 0.79720  0.84160  0.47330  Biso   1.000  C 
  H32      1.0000 0.81090  0.76550  0.46860  Biso   1.000  H 
  C37      1.0000 0.83970  0.92760  0.44340  Biso   1.000  C 
  N10      1.0000 0.90800  0.89630  0.40690  Biso   1.000  N 
  O17      1.0000 0.94630  0.97160  0.38250  Biso   1.000  O 
  O18      1.0000 0.92550  0.79650  0.40260  Biso   1.000  O 
  C38      1.0000 0.82010  0.04000  0.44850  Biso   1.000  C 
  C39      1.0000 0.75800  0.06910  0.48540  Biso   1.000  C 
  H33      1.0000 0.74450  0.14540  0.48980  Biso   1.000  H 
  C40      1.0000 0.71530  0.98690  0.51620  Biso   1.000  C 
  H34      1.0000 0.67350  0.00790  0.54130  Biso   1.000  H 
  H35      1.0000 0.84840  0.09560  0.42730  Biso   1.000  H 
  H36      1.0000 0.53700  0.86210  0.90940  Biso   1.000  H 
  H37      1.0000 0.57090  0.74360  0.92970  Biso   1.000  H 
  S3       1.0000 0.42925  0.73705  0.97889  Biso   1.000  S 
  O19      1.0000 0.35005  0.69470  0.98120  Biso   1.000  O 
  C41      1.0000 0.48460  0.63310  0.02100  Biso   1.000  C 
  C42      1.0000 0.46500  0.51910  0.01490  Biso   1.000  C 
  H38      1.0000 0.42410  0.49790  0.98890  Biso   1.000  H 
  C43      1.0000 0.50640  0.43700  0.04750  Biso   1.000  C 
  H39      1.0000 0.49340  0.36060  0.04300  Biso   1.000  H 
  C44      1.0000 0.56680  0.46810  0.08660  Biso   1.000  C 
  H40      1.0000 0.59370  0.41350  0.10960  Biso   1.000  H 
  C45      1.0000 0.58660  0.58150  0.09090  Biso   1.000  C 
  N11      1.0000 0.65370  0.61370  0.12970  Biso   1.000  N 
  O20      1.0000 0.66750  0.71480  0.13690  Biso   1.000  O 
  O21      1.0000 0.69170  0.53670  0.15380  Biso   1.000  O 
  C46      1.0000 0.54630  0.66590  0.05920  Biso   1.000  C 
  H41      1.0000 0.56010  0.74210  0.06340  Biso   1.000  H 
  O22      1.0000 0.44290  0.84220  0.01210  Biso   1.000  O 
  N12      1.0000 0.39690  0.93190  0.81270  Biso   1.000  N 
  C47      1.0000 0.39430  0.99140  0.86500  Biso   1.000  C 
  H42      1.0000 0.39050  0.95150  0.90280  Biso   1.000  H 
  C48      1.0000 0.39690  0.10970  0.86820  Biso   1.000  C 
  H43      1.0000 0.39470  0.14640  0.90710  Biso   1.000  H 
  C49      1.0000 0.40270  0.17200  0.81330  Biso   1.000  C 
  C50      1.0000 0.40670  0.11000  0.75770  Biso   1.000  C 
  H44      1.0000 0.41150  0.14810  0.71940  Biso   1.000  H 
  C51      1.0000 0.40370  0.99290  0.75830  Biso   1.000  C 
  H45      1.0000 0.40640  0.95390  0.72020  Biso   1.000  H 
  C52      1.0000 0.40250  0.29820  0.81410  Biso   1.000  C 
  C53      1.0000 0.43940  0.36180  0.76730  Biso   1.000  C 
  H46      1.0000 0.46760  0.32530  0.73580  Biso   1.000  H 
  C54      1.0000 0.43400  0.47930  0.76780  Biso   1.000  C 
  H47      1.0000 0.45830  0.52010  0.73580  Biso   1.000  H 
  N13      1.0000 0.39500  0.53760  0.81280  Biso   1.000  N 
  C55      1.0000 0.36120  0.47590  0.85750  Biso   1.000  C 
  C56      1.0000 0.36310  0.35880  0.85960  Biso   1.000  C 
  H48      1.0000 0.33760  0.32040  0.89180  Biso   1.000  H 
  H49      1.0000 0.33460  0.51410  0.88940  Biso   1.000  H 
  O23      1.0000 0.26240  0.71770  0.73870  Biso   1.000  O 
  H50      1.0000 0.31840  0.72520  0.60050  Biso   1.000  H 
  S4       1.0000 0.17885  0.73216  0.55019  Biso   1.000  S 
  O24      1.0000 0.19550  0.83720  0.51660  Biso   1.000  O 
  O25      1.0000 0.09880  0.69200  0.54620  Biso   1.000  O 
  C57      1.0000 0.23470  0.62710  0.50980  Biso   1.000  C 
  C58      1.0000 0.29720  0.65840  0.47330  Biso   1.000  C 
  C59      1.0000 0.33970  0.57240  0.44340  Biso   1.000  C 
  C60      1.0000 0.32010  0.46000  0.44850  Biso   1.000  C 
  C61      1.0000 0.25800  0.43090  0.48540  Biso   1.000  C 
  H51      1.0000 0.24450  0.35460  0.48980  Biso   1.000  H 
  C62      1.0000 0.21530  0.51310  0.51620  Biso   1.000  C 
  H52      1.0000 0.17350  0.49210  0.54130  Biso   1.000  H 
  H53      1.0000 0.34840  0.40440  0.42730  Biso   1.000  H 
  N14      1.0000 0.40800  0.60370  0.40690  Biso   1.000  N 
  O26      1.0000 0.44630  0.52840  0.38250  Biso   1.000  O 
  O27      1.0000 0.42550  0.70350  0.40260  Biso   1.000  O 
  H54      1.0000 0.31090  0.73450  0.46860  Biso   1.000  H 
  O28      1.0000 0.03140  0.73400  0.66090  Biso   1.000  O 
  H55      1.0000 0.02617  0.66424  0.63476  Biso   1.000  H 
  H56      1.0000 0.98714  0.73890  0.69077  Biso   1.000  H 
  N15      1.0000 0.13450  0.53150  0.71950  Biso   1.000  N 
  C63      1.0000 0.17350  0.47480  0.76300  Biso   1.000  C 
  H57      1.0000 0.19720  0.51640  0.79500  Biso   1.000  H 
  C64      1.0000 0.18150  0.35770  0.76400  Biso   1.000  C 
  C65      1.0000 0.14900  0.29260  0.71720  Biso   1.000  C 
  C66      1.0000 0.10900  0.35170  0.66950  Biso   1.000  C 
  H58      1.0000 0.08680  0.31230  0.63600  Biso   1.000  H 
  C67      1.0000 0.10310  0.46800  0.67300  Biso   1.000  C 
  H59      1.0000 0.07580  0.50540  0.64140  Biso   1.000  H 
  C68      1.0000 0.15390  0.16570  0.71580  Biso   1.000  C 
  C69      1.0000 0.13560  0.10250  0.66280  Biso   1.000  C 
  H60      1.0000 0.12410  0.13940  0.62510  Biso   1.000  H 
  C70      1.0000 0.13440  0.98540  0.66530  Biso   1.000  C 
  H61      1.0000 0.11990  0.94580  0.62920  Biso   1.000  H 
  N16      1.0000 0.15290  0.92560  0.71680  Biso   1.000  N 
  C71      1.0000 0.17680  0.98470  0.76490  Biso   1.000  C 
  H62      1.0000 0.19300  0.94500  0.80050  Biso   1.000  H 
  C72      1.0000 0.18000  0.10350  0.76680  Biso   1.000  C 
  H63      1.0000 0.19950  0.14040  0.80230  Biso   1.000  H 
  H64      1.0000 0.20890  0.32300  0.79650  Biso   1.000  H 
