data_image0
_cell_length_a       12.375
_cell_length_b       17.497
_cell_length_c       8.258
_cell_angle_alpha    90
_cell_angle_beta     93.634
_cell_angle_gamma    90

_symmetry_space_group_name_H-M    "P 1"
_symmetry_int_tables_number       1

loop_
  _symmetry_equiv_pos_as_xyz
  'x, y, z'

loop_
  _atom_site_label
  _atom_site_occupancy
  _atom_site_fract_x
  _atom_site_fract_y
  _atom_site_fract_z
  _atom_site_thermal_displace_type
  _atom_site_B_iso_or_equiv
  _atom_site_type_symbol
  Ag1      1.0000 0.33818  0.02880  0.02079  Biso   1.000  Ag
  N1       1.0000 0.27940  0.07860  0.24370  Biso   1.000  N 
  C1       1.0000 0.18900  0.07590  0.30740  Biso   1.000  C 
  O1       1.0000 0.17280  0.12430  0.42950  Biso   1.000  O 
  C2       1.0000 0.26970  0.17260  0.44890  Biso   1.000  C 
  H1       1.0000 0.25230  0.22560  0.42460  Biso   1.000  H 
  H2       1.0000 0.30270  0.16920  0.55830  Biso   1.000  H 
  C3       1.0000 0.34340  0.14010  0.32760  Biso   1.000  C 
  H3       1.0000 0.36310  0.17900  0.25110  Biso   1.000  H 
  H4       1.0000 0.40890  0.11960  0.38190  Biso   1.000  H 
  C4       1.0000 0.09700  0.02490  0.26220  Biso   1.000  C 
  C5       1.0000 0.10900  0.95940  0.16900  Biso   1.000  C 
  H5       1.0000 0.17740  0.94500  0.13920  Biso   1.000  H 
  C6       1.0000 0.02050  0.91610  0.12130  Biso   1.000  C 
  C7       1.0000 0.03370  0.84800  0.01750  Biso   1.000  C 
  O2       1.0000 0.94620  0.81160  0.96210  Biso   1.000  O 
  C8       1.0000 0.98510  0.75090  0.86040  Biso   1.000  C 
  H6       1.0000 0.96400  0.70120  0.89980  Biso   1.000  H 
  H7       1.0000 0.95630  0.75680  0.74900  Biso   1.000  H 
  C9       1.0000 0.10510  0.75930  0.87200  Biso   1.000  C 
  H8       1.0000 0.13930  0.71400  0.91930  Biso   1.000  H 
  H9       1.0000 0.13190  0.76760  0.76550  Biso   1.000  H 
  N2       1.0000 0.12700  0.82550  0.97590  Biso   1.000  N 
  C10      1.0000 0.91790  0.93690  0.16510  Biso   1.000  C 
  H10      1.0000 0.85790  0.90750  0.13180  Biso   1.000  H 
  C11      1.0000 0.90540  0.00160  0.25860  Biso   1.000  C 
  C12      1.0000 0.79740  0.02570  0.30500  Biso   1.000  C 
  O3       1.0000 0.79750  0.06730  0.44090  Biso   1.000  O 
  C13      1.0000 0.68540  0.08420  0.46530  Biso   1.000  C 
  H11      1.0000 0.67370  0.13900  0.46930  Biso   1.000  H 
  H12      1.0000 0.66370  0.06160  0.56540  Biso   1.000  H 
  C14      1.0000 0.62320  0.04960  0.32090  Biso   1.000  C 
  H13      1.0000 0.58460  0.08850  0.25680  Biso   1.000  H 
  H14      1.0000 0.57180  0.01180  0.35470  Biso   1.000  H 
  N3       1.0000 0.70830  0.01340  0.22820  Biso   1.000  N 
  Ag2      1.0000 0.66182  0.97120  0.97921  Biso   1.000  Ag
  N4       1.0000 0.72060  0.92140  0.75630  Biso   1.000  N 
  C15      1.0000 0.81100  0.92410  0.69260  Biso   1.000  C 
  O4       1.0000 0.82720  0.87570  0.57050  Biso   1.000  O 
  C16      1.0000 0.73030  0.82740  0.55110  Biso   1.000  C 
  H15      1.0000 0.69730  0.83080  0.44170  Biso   1.000  H 
  H16      1.0000 0.74770  0.77440  0.57540  Biso   1.000  H 
  C17      1.0000 0.65660  0.85990  0.67240  Biso   1.000  C 
  H17      1.0000 0.63690  0.82100  0.74890  Biso   1.000  H 
  H18      1.0000 0.59110  0.88040  0.61810  Biso   1.000  H 
  C18      1.0000 0.90300  0.97510  0.73780  Biso   1.000  C 
  C19      1.0000 0.89100  0.04060  0.83100  Biso   1.000  C 
  H19      1.0000 0.82260  0.05500  0.86080  Biso   1.000  H 
  C20      1.0000 0.97950  0.08390  0.87870  Biso   1.000  C 
  C21      1.0000 0.96630  0.15200  0.98250  Biso   1.000  C 
  N5       1.0000 0.87300  0.17450  0.02410  Biso   1.000  N 
  C22      1.0000 0.89490  0.24070  0.12800  Biso   1.000  C 
  H20      1.0000 0.86810  0.23240  0.23450  Biso   1.000  H 
  H21      1.0000 0.86070  0.28600  0.08070  Biso   1.000  H 
  C23      1.0000 0.01490  0.24910  0.13960  Biso   1.000  C 
  H22      1.0000 0.04370  0.24320  0.25100  Biso   1.000  H 
  H23      1.0000 0.03600  0.29880  0.10020  Biso   1.000  H 
  O5       1.0000 0.05380  0.18840  0.03790  Biso   1.000  O 
  C24      1.0000 0.08210  0.06310  0.83490  Biso   1.000  C 
  H24      1.0000 0.14210  0.09250  0.86820  Biso   1.000  H 
  C25      1.0000 0.09460  0.99840  0.74140  Biso   1.000  C 
  C26      1.0000 0.20260  0.97430  0.69500  Biso   1.000  C 
  O6       1.0000 0.20250  0.93270  0.55910  Biso   1.000  O 
  C27      1.0000 0.31460  0.91580  0.53470  Biso   1.000  C 
  H25      1.0000 0.32630  0.86100  0.53070  Biso   1.000  H 
  H26      1.0000 0.33630  0.93840  0.43460  Biso   1.000  H 
  C28      1.0000 0.37680  0.95040  0.67910  Biso   1.000  C 
  H27      1.0000 0.41540  0.91150  0.74320  Biso   1.000  H 
  H28      1.0000 0.42820  0.98820  0.64530  Biso   1.000  H 
  N6       1.0000 0.29170  0.98660  0.77180  Biso   1.000  N 
  C29      1.0000 0.00480  0.95540  0.68980  Biso   1.000  C 
  H29      1.0000 0.01270  0.91330  0.62280  Biso   1.000  H 
  O7       1.0000 0.52110  0.08030  0.94280  Biso   1.000  O 
  S1       1.0000 0.49971  0.14396  0.84460  Biso   1.000  S 
  O8       1.0000 0.50200  0.13150  0.67600  Biso   1.000  O 
  O9       1.0000 0.38690  0.17080  0.86500  Biso   1.000  O 
  C30      1.0000 0.59040  0.21710  0.89650  Biso   1.000  C 
  H30      1.0000 0.55110  0.26330  0.91500  Biso   1.000  H 
  H31      1.0000 0.63730  0.22500  0.80980  Biso   1.000  H 
  H32      1.0000 0.63290  0.20340  0.99350  Biso   1.000  H 
  O10      1.0000 0.47890  0.91970  0.05720  Biso   1.000  O 
  S2       1.0000 0.50029  0.85604  0.15540  Biso   1.000  S 
  C31      1.0000 0.40960  0.78290  0.10350  Biso   1.000  C 
  H33      1.0000 0.36710  0.79660  0.00650  Biso   1.000  H 
  H34      1.0000 0.36270  0.77500  0.19020  Biso   1.000  H 
  H35      1.0000 0.44890  0.73670  0.08500  Biso   1.000  H 
  O11      1.0000 0.61310  0.82920  0.13500  Biso   1.000  O 
  O12      1.0000 0.49800  0.86850  0.32400  Biso   1.000  O 
  C32      1.0000 0.99520  0.04460  0.31020  Biso   1.000  C 
  H36      1.0000 0.98730  0.08670  0.37720  Biso   1.000  H 
