data_image0
_cell_length_a       10.7575
_cell_length_b       15.318
_cell_length_c       29.3906
_cell_angle_alpha    81.112
_cell_angle_beta     87.711
_cell_angle_gamma    84.536

_symmetry_space_group_name_H-M    "P 1"
_symmetry_int_tables_number       1

loop_
  _symmetry_equiv_pos_as_xyz
  'x, y, z'

loop_
  _atom_site_label
  _atom_site_occupancy
  _atom_site_fract_x
  _atom_site_fract_y
  _atom_site_fract_z
  _atom_site_thermal_displace_type
  _atom_site_B_iso_or_equiv
  _atom_site_type_symbol
  Zn1      1.0000 0.72639  0.35035  0.30820  Biso   1.000  Zn
  N1       1.0000 0.75440  0.39942  0.23627  Biso   1.000  N 
  C1       1.0000 0.69740  0.47600  0.21557  Biso   1.000  C 
  H1       1.0000 0.63560  0.50540  0.23210  Biso   1.000  H 
  C2       1.0000 0.72550  0.51340  0.17144  Biso   1.000  C 
  H2       1.0000 0.68360  0.56700  0.15890  Biso   1.000  H 
  C3       1.0000 0.81580  0.47190  0.14556  Biso   1.000  C 
  C4       1.0000 0.87260  0.39200  0.16672  Biso   1.000  C 
  H3       1.0000 0.93280  0.36030  0.15060  Biso   1.000  H 
  C5       1.0000 0.84090  0.35900  0.21134  Biso   1.000  C 
  H4       1.0000 0.88200  0.30560  0.22480  Biso   1.000  H 
  C6       1.0000 0.84750  0.51300  0.09781  Biso   1.000  C 
  C7       1.0000 0.94620  0.46850  0.07028  Biso   1.000  C 
  H5       1.0000 0.92090  0.41250  0.06510  Biso   1.000  H 
  H6       1.0000 0.95870  0.50520  0.04120  Biso   1.000  H 
  H7       1.0000 0.02280  0.45890  0.08670  Biso   1.000  H 
  N2       1.0000 0.78170  0.58480  0.08368  Biso   1.000  N 
  N3       1.0000 0.80790  0.62450  0.03890  Biso   1.000  N 
  C8       1.0000 0.71540  0.67720  0.02168  Biso   1.000  C 
  C9       1.0000 0.59440  0.69530  0.04655  Biso   1.000  C 
  H8       1.0000 0.55940  0.75440  0.03560  Biso   1.000  H 
  H9       1.0000 0.53750  0.65360  0.04110  Biso   1.000  H 
  H10      1.0000 0.60830  0.68940  0.07900  Biso   1.000  H 
  C10      1.0000 0.73450  0.72120  0.97376  Biso   1.000  C 
  C11      1.0000 0.85260  0.73150  0.95399  Biso   1.000  C 
  H11      1.0000 0.92320  0.71100  0.97110  Biso   1.000  H 
  C12      1.0000 0.86490  0.77200  0.90912  Biso   1.000  C 
  H12      1.0000 0.94500  0.77880  0.89680  Biso   1.000  H 
  N4       1.0000 0.76780  0.80215  0.88212  Biso   1.000  N 
  C13      1.0000 0.65410  0.79190  0.90094  Biso   1.000  C 
  C14      1.0000 0.63380  0.75390  0.94581  Biso   1.000  C 
  H13      1.0000 0.55260  0.75000  0.95750  Biso   1.000  H 
  H14      1.0000 0.58510  0.81140  0.88280  Biso   1.000  H 
  Zn2      1.0000 0.79509  0.85690  0.80975  Biso   1.000  Zn
  N5       1.0000 0.80990  0.90632  0.73801  Biso   1.000  N 
  C15      1.0000 0.90340  0.87670  0.71218  Biso   1.000  C 
  H15      1.0000 0.95840  0.83000  0.72540  Biso   1.000  H 
  C16      1.0000 0.92350  0.91180  0.66645  Biso   1.000  C 
  H16      1.0000 0.99090  0.88880  0.64980  Biso   1.000  H 
  C17      1.0000 0.84330  0.98100  0.64545  Biso   1.000  C 
  C18      1.0000 0.74480  0.01140  0.67249  Biso   1.000  C 
  H17      1.0000 0.68780  0.05760  0.66010  Biso   1.000  H 
  C19      1.0000 0.73160  0.97320  0.71746  Biso   1.000  C 
  H18      1.0000 0.66470  0.99470  0.73480  Biso   1.000  H 
  C20      1.0000 0.85940  0.02290  0.59691  Biso   1.000  C 
  N6       1.0000 0.77190  0.08310  0.58289  Biso   1.000  N 
  N7       1.0000 0.78520  0.12320  0.53693  Biso   1.000  N 
  C21      1.0000 0.68720  0.17270  0.52235  Biso   1.000  C 
  C22      1.0000 0.56860  0.18820  0.54961  Biso   1.000  C 
  H19      1.0000 0.54120  0.25040  0.54490  Biso   1.000  H 
  H20      1.0000 0.58320  0.16860  0.58170  Biso   1.000  H 
  H21      1.0000 0.50540  0.15570  0.53970  Biso   1.000  H 
  C23      1.0000 0.69590  0.21640  0.47353  Biso   1.000  C 
  C24      1.0000 0.80840  0.21580  0.44907  Biso   1.000  C 
  C25      1.0000 0.81360  0.25600  0.40403  Biso   1.000  C 
  H22      1.0000 0.89070  0.25540  0.38860  Biso   1.000  H 
  N8       1.0000 0.71280  0.29623  0.38104  Biso   1.000  N 
  C26      1.0000 0.60440  0.29690  0.40452  Biso   1.000  C 
  H23      1.0000 0.53340  0.32440  0.38950  Biso   1.000  H 
  C27      1.0000 0.59180  0.25900  0.45003  Biso   1.000  C 
  H24      1.0000 0.51400  0.26190  0.46500  Biso   1.000  H 
  H25      1.0000 0.88070  0.18800  0.46320  Biso   1.000  H 
  C28      1.0000 0.96770  0.99230  0.56867  Biso   1.000  C 
  H26      1.0000 0.95980  0.93250  0.56390  Biso   1.000  H 
  H27      1.0000 0.96960  0.03020  0.53940  Biso   1.000  H 
  H28      1.0000 0.04360  0.99440  0.58440  Biso   1.000  H 
  C29      1.0000 0.79700  0.69370  0.80090  Biso   1.000  C 
  C30      1.0000 0.81300  0.59490  0.80554  Biso   1.000  C 
  H29      1.0000 0.89380  0.56840  0.80270  Biso   1.000  H 
  C31      1.0000 0.72270  0.54220  0.81327  Biso   1.000  C 
  H30      1.0000 0.64100  0.56800  0.81450  Biso   1.000  H 
  C32      1.0000 0.74260  0.44600  0.82006  Biso   1.000  C 
  C33      1.0000 0.65590  0.39080  0.82774  Biso   1.000  C 
  H31      1.0000 0.57350  0.41400  0.83070  Biso   1.000  H 
  C34      1.0000 0.68210  0.29300  0.83197  Biso   1.000  C 
  Zn3      1.0000 0.69887  0.12924  0.82094  Biso   1.000  Zn
  N9       1.0000 0.72390  0.18288  0.74984  Biso   1.000  N 
  C35      1.0000 0.83680  0.20410  0.73386  Biso   1.000  C 
  H32      1.0000 0.90290  0.19150  0.75400  Biso   1.000  H 
  C36      1.0000 0.86110  0.24330  0.68969  Biso   1.000  C 
  H33      1.0000 0.94180  0.25620  0.68030  Biso   1.000  H 
  C37      1.0000 0.76320  0.26370  0.65879  Biso   1.000  C 
  C38      1.0000 0.64500  0.24210  0.67528  Biso   1.000  C 
  H34      1.0000 0.57700  0.25440  0.65600  Biso   1.000  H 
  C39      1.0000 0.62940  0.20225  0.72045  Biso   1.000  C 
  H35      1.0000 0.54990  0.18830  0.73090  Biso   1.000  H 
  C40      1.0000 0.78560  0.30690  0.61104  Biso   1.000  C 
  C41      1.0000 0.91440  0.29720  0.58986  Biso   1.000  C 
  H36      1.0000 0.95370  0.23920  0.60070  Biso   1.000  H 
  H37      1.0000 0.90910  0.30490  0.55690  Biso   1.000  H 
  H38      1.0000 0.96300  0.34140  0.59830  Biso   1.000  H 
  N10      1.0000 0.69150  0.35062  0.59048  Biso   1.000  N 
  N11      1.0000 0.71330  0.38504  0.54469  Biso   1.000  N 
  C42      1.0000 0.68930  0.46810  0.53269  Biso   1.000  C 
  C43      1.0000 0.64680  0.53100  0.56510  Biso   1.000  C 
  H39      1.0000 0.71610  0.56120  0.57220  Biso   1.000  H 
  H40      1.0000 0.61390  0.49890  0.59290  Biso   1.000  H 
  H41      1.0000 0.58290  0.57360  0.55110  Biso   1.000  H 
  C44      1.0000 0.70700  0.50030  0.48292  Biso   1.000  C 
  C45      1.0000 0.63590  0.57270  0.45994  Biso   1.000  C 
  H42      1.0000 0.57510  0.60400  0.47600  Biso   1.000  H 
  C46      1.0000 0.65520  0.59840  0.41345  Biso   1.000  C 
  H43      1.0000 0.60550  0.64690  0.39890  Biso   1.000  H 
  N12      1.0000 0.74000  0.55825  0.38842  Biso   1.000  N 
  C47      1.0000 0.80790  0.48840  0.41037  Biso   1.000  C 
  H44      1.0000 0.86860  0.45870  0.39350  Biso   1.000  H 
  C48      1.0000 0.79350  0.45760  0.45651  Biso   1.000  C 
  H45      1.0000 0.84260  0.40770  0.46990  Biso   1.000  H 
  Zn4      1.0000 0.76426  0.60833  0.31642  Biso   1.000  Zn
  N13      1.0000 0.78310  0.66660  0.24524  Biso   1.000  N 
  C49      1.0000 0.89660  0.67330  0.22512  Biso   1.000  C 
  H46      1.0000 0.96540  0.64570  0.24150  Biso   1.000  H 
  C50      1.0000 0.91740  0.71830  0.18182  Biso   1.000  C 
  H47      1.0000 0.99820  0.72070  0.16940  Biso   1.000  H 
  C51      1.0000 0.81530  0.76080  0.15653  Biso   1.000  C 
  C52      1.0000 0.69720  0.75400  0.17716  Biso   1.000  C 
  C53      1.0000 0.68520  0.70670  0.22063  Biso   1.000  C 
  H48      1.0000 0.60540  0.70220  0.23370  Biso   1.000  H 
  H49      1.0000 0.62680  0.78130  0.16160  Biso   1.000  H 
  C54      1.0000 0.83140  0.81170  0.10993  Biso   1.000  C 
  C55      1.0000 0.95790  0.81380  0.08758  Biso   1.000  C 
  H50      1.0000 0.95020  0.83460  0.05520  Biso   1.000  H 
  H51      1.0000 0.00010  0.75510  0.09200  Biso   1.000  H 
  H52      1.0000 0.00510  0.85290  0.10110  Biso   1.000  H 
  N14      1.0000 0.73230  0.85151  0.09114  Biso   1.000  N 
  N15      1.0000 0.74370  0.89251  0.04618  Biso   1.000  N 
  C56      1.0000 0.69130  0.97090  0.03690  Biso   1.000  C 
  C57      1.0000 0.69550  0.01020  0.98758  Biso   1.000  C 
  C58      1.0000 0.62390  0.08630  0.96955  Biso   1.000  C 
  H53      1.0000 0.57210  0.11680  0.98900  Biso   1.000  H 
  C59      1.0000 0.62830  0.11770  0.92298  Biso   1.000  C 
  H54      1.0000 0.57750  0.16850  0.91200  Biso   1.000  H 
  N16      1.0000 0.70130  0.07901  0.89315  Biso   1.000  N 
  C60      1.0000 0.77060  0.00660  0.91050  Biso   1.000  C 
  C61      1.0000 0.77120  0.97140  0.95628  Biso   1.000  C 
  H55      1.0000 0.82340  0.92060  0.96620  Biso   1.000  H 
  H56      1.0000 0.82230  0.97770  0.89030  Biso   1.000  H 
  C62      1.0000 0.62640  0.02170  0.07202  Biso   1.000  C 
  H57      1.0000 0.55180  0.05410  0.05930  Biso   1.000  H 
  H58      1.0000 0.68090  0.06240  0.08040  Biso   1.000  H 
  H59      1.0000 0.60500  0.98120  0.09880  Biso   1.000  H 
  O1       1.0000 0.58997  0.58169  0.30402  Biso   1.000  O 
  C63      1.0000 0.53110  0.51380  0.31027  Biso   1.000  C 
  O2       1.0000 0.57649  0.43492  0.31828  Biso   1.000  O 
  C64      1.0000 0.39260  0.53130  0.30754  Biso   1.000  C 
  H60      1.0000 0.36200  0.59400  0.30550  Biso   1.000  H 
  C65      1.0000 0.31480  0.46850  0.30837  Biso   1.000  C 
  H61      1.0000 0.34500  0.40600  0.30880  Biso   1.000  H 
  C66      1.0000 0.18010  0.48750  0.30764  Biso   1.000  C 
  C67      1.0000 0.09990  0.42640  0.30882  Biso   1.000  C 
  H62      1.0000 0.13220  0.36820  0.30800  Biso   1.000  H 
  C68      1.0000 0.96270  0.44490  0.31139  Biso   1.000  C 
  O3       1.0000 0.91860  0.52432  0.30755  Biso   1.000  O 
  O4       1.0000 0.90175  0.37788  0.31890  Biso   1.000  O 
  H63      1.0000 0.14790  0.54640  0.30630  Biso   1.000  H 
  O5       1.0000 0.85200  0.71329  0.33213  Biso   1.000  O 
  C69      1.0000 0.76290  0.77360  0.32968  Biso   1.000  C 
  C70      1.0000 0.79450  0.86660  0.32712  Biso   1.000  C 
  H64      1.0000 0.87640  0.87620  0.33240  Biso   1.000  H 
  C71      1.0000 0.71270  0.93610  0.31779  Biso   1.000  C 
  H65      1.0000 0.63000  0.92610  0.31410  Biso   1.000  H 
  C72      1.0000 0.74320  0.02700  0.31298  Biso   1.000  C 
  H66      1.0000 0.82580  0.03650  0.31710  Biso   1.000  H 
  C73      1.0000 0.66320  0.09760  0.30319  Biso   1.000  C 
  H67      1.0000 0.58050  0.08940  0.29820  Biso   1.000  H 
  C74      1.0000 0.69920  0.18930  0.29977  Biso   1.000  C 
  O6       1.0000 0.81010  0.20433  0.30230  Biso   1.000  O 
  O7       1.0000 0.61210  0.25222  0.29537  Biso   1.000  O 
  O8       1.0000 0.65190  0.75806  0.32691  Biso   1.000  O 
  O9       1.0000 0.58920  0.24880  0.83065  Biso   1.000  O 
  O10      1.0000 0.54673  0.06937  0.80830  Biso   1.000  O 
  C75      1.0000 0.54130  0.98720  0.81172  Biso   1.000  C 
  O11      1.0000 0.63280  0.93043  0.81844  Biso   1.000  O 
  C76      1.0000 0.41730  0.95340  0.80861  Biso   1.000  C 
  H68      1.0000 0.41360  0.89300  0.80890  Biso   1.000  H 
  C77      1.0000 0.31180  0.00600  0.80549  Biso   1.000  C 
  H69      1.0000 0.31770  0.06690  0.80220  Biso   1.000  H 
  C78      1.0000 0.18840  0.97570  0.80688  Biso   1.000  C 
  H70      1.0000 0.18170  0.91580  0.80620  Biso   1.000  H 
  C79      1.0000 0.08450  0.02870  0.80904  Biso   1.000  C 
  H71      1.0000 0.09170  0.08920  0.80700  Biso   1.000  H 
  C80      1.0000 0.95740  0.99830  0.81452  Biso   1.000  C 
  O12      1.0000 0.86860  0.05665  0.81250  Biso   1.000  O 
  O13      1.0000 0.94864  0.91522  0.82203  Biso   1.000  O 
  O14      1.0000 0.79100  0.25697  0.83406  Biso   1.000  O 
  H72      1.0000 0.82490  0.42140  0.81880  Biso   1.000  H 
  O15      1.0000 0.69010  0.73392  0.79668  Biso   1.000  O 
  O16      1.0000 0.89280  0.73353  0.80321  Biso   1.000  O 
