data_image0
_cell_length_a       11.0697
_cell_length_b       22.2083
_cell_length_c       19.5333
_cell_angle_alpha    90
_cell_angle_beta     90
_cell_angle_gamma    90

_symmetry_space_group_name_H-M    "P 1"
_symmetry_int_tables_number       1

loop_
  _symmetry_equiv_pos_as_xyz
  'x, y, z'

loop_
  _atom_site_label
  _atom_site_occupancy
  _atom_site_fract_x
  _atom_site_fract_y
  _atom_site_fract_z
  _atom_site_thermal_displace_type
  _atom_site_B_iso_or_equiv
  _atom_site_type_symbol
  Zn1      1.0000 0.72752  0.63248  0.68133  Biso   1.000  Zn
  O1       1.0000 0.70130  0.70247  0.62130  Biso   1.000  O 
  C1       1.0000 0.70120  0.75520  0.64810  Biso   1.000  C 
  O2       1.0000 0.70280  0.76490  0.71030  Biso   1.000  O 
  C2       1.0000 0.70080  0.80520  0.59790  Biso   1.000  C 
  H1       1.0000 0.68890  0.79600  0.55190  Biso   1.000  H 
  C3       1.0000 0.71650  0.86260  0.61540  Biso   1.000  C 
  C4       1.0000 0.72980  0.91100  0.56710  Biso   1.000  C 
  C5       1.0000 0.75600  0.96720  0.58490  Biso   1.000  C 
  H2       1.0000 0.76370  0.97610  0.63120  Biso   1.000  H 
  C6       1.0000 0.77360  0.01600  0.53520  Biso   1.000  C 
  O3       1.0000 0.79050  0.06920  0.56140  Biso   1.000  O 
  Zn2      1.0000 0.80492  0.13126  0.49058  Biso   1.000  Zn
  N1       1.0000 0.95340  0.12350  0.43200  Biso   1.000  N 
  C7       1.0000 0.97470  0.07230  0.39540  Biso   1.000  C 
  H3       1.0000 0.91880  0.04110  0.39800  Biso   1.000  H 
  C8       1.0000 0.07460  0.06450  0.35510  Biso   1.000  C 
  H4       1.0000 0.08530  0.02890  0.33070  Biso   1.000  H 
  C9       1.0000 0.16030  0.11060  0.35070  Biso   1.000  C 
  N2       1.0000 0.25780  0.10250  0.30960  Biso   1.000  N 
  N3       1.0000 0.34990  0.14640  0.30730  Biso   1.000  N 
  C10      1.0000 0.44460  0.14280  0.35010  Biso   1.000  C 
  C11      1.0000 0.54040  0.18420  0.34410  Biso   1.000  C 
  H5       1.0000 0.53700  0.21410  0.31080  Biso   1.000  H 
  C12      1.0000 0.63750  0.18090  0.38620  Biso   1.000  C 
  H6       1.0000 0.69840  0.20950  0.38100  Biso   1.000  H 
  N4       1.0000 0.65110  0.13830  0.43570  Biso   1.000  N 
  C13      1.0000 0.55920  0.09880  0.44230  Biso   1.000  C 
  C14      1.0000 0.45680  0.09930  0.40340  Biso   1.000  C 
  H7       1.0000 0.39560  0.07160  0.41160  Biso   1.000  H 
  H8       1.0000 0.56620  0.06910  0.47560  Biso   1.000  H 
  C15      1.0000 0.13860  0.16330  0.38830  Biso   1.000  C 
  H9       1.0000 0.19310  0.19510  0.38700  Biso   1.000  H 
  C16      1.0000 0.03690  0.16700  0.42640  Biso   1.000  C 
  H10      1.0000 0.02380  0.20240  0.45070  Biso   1.000  H 
  O4       1.0000 0.82280  0.20137  0.55190  Biso   1.000  O 
  C17      1.0000 0.82300  0.25390  0.52520  Biso   1.000  C 
  O5       1.0000 0.82720  0.26409  0.46310  Biso   1.000  O 
  C18      1.0000 0.81790  0.30390  0.57630  Biso   1.000  C 
  H11      1.0000 0.82510  0.29470  0.62260  Biso   1.000  H 
  C19      1.0000 0.80350  0.36100  0.55800  Biso   1.000  C 
  H12      1.0000 0.80040  0.37000  0.51150  Biso   1.000  H 
  C20      1.0000 0.79210  0.41100  0.60710  Biso   1.000  C 
  H13      1.0000 0.79400  0.40230  0.65370  Biso   1.000  H 
  C21      1.0000 0.77940  0.46730  0.58800  Biso   1.000  C 
  H14      1.0000 0.78140  0.47680  0.54170  Biso   1.000  H 
  C22      1.0000 0.76190  0.51650  0.63980  Biso   1.000  C 
  O6       1.0000 0.75260  0.56950  0.61300  Biso   1.000  O 
  O7       1.0000 0.75820  0.50565  0.70030  Biso   1.000  O 
  O8       1.0000 0.76920  0.00650  0.47270  Biso   1.000  O 
  H15      1.0000 0.71950  0.90250  0.52090  Biso   1.000  H 
  H16      1.0000 0.71900  0.87200  0.66180  Biso   1.000  H 
  N5       1.0000 0.57800  0.62360  0.73990  Biso   1.000  N 
  C23      1.0000 0.55900  0.57380  0.77800  Biso   1.000  C 
  H17      1.0000 0.61700  0.54350  0.77740  Biso   1.000  H 
  C24      1.0000 0.45930  0.56610  0.81690  Biso   1.000  C 
  C25      1.0000 0.37140  0.61110  0.81960  Biso   1.000  C 
  C26      1.0000 0.39140  0.66240  0.77980  Biso   1.000  C 
  C27      1.0000 0.49300  0.66660  0.74120  Biso   1.000  C 
  H18      1.0000 0.50420  0.70090  0.71460  Biso   1.000  H 
  H19      1.0000 0.33530  0.69350  0.77970  Biso   1.000  H 
  N6       1.0000 0.27160  0.60370  0.86160  Biso   1.000  N 
  N7       1.0000 0.18390  0.64750  0.86230  Biso   1.000  N 
  C28      1.0000 0.08800  0.64410  0.81970  Biso   1.000  C 
  C29      1.0000 0.07380  0.60050  0.76860  Biso   1.000  C 
  H20      1.0000 0.13310  0.57150  0.76140  Biso   1.000  H 
  C30      1.0000 0.97220  0.60110  0.72960  Biso   1.000  C 
  H21      1.0000 0.96580  0.57220  0.69530  Biso   1.000  H 
  N8       1.0000 0.88070  0.63990  0.73660  Biso   1.000  N 
  C31      1.0000 0.89540  0.68230  0.78570  Biso   1.000  C 
  C32      1.0000 0.99320  0.68600  0.82650  Biso   1.000  C 
  H22      1.0000 0.99820  0.71630  0.85920  Biso   1.000  H 
  H23      1.0000 0.83440  0.71070  0.79160  Biso   1.000  H 
  H24      1.0000 0.44930  0.53080  0.84200  Biso   1.000  H 
