data_image0
_cell_length_a       3.8855
_cell_length_b       15.424
_cell_length_c       11.2995
_cell_angle_alpha    90
_cell_angle_beta     93.551
_cell_angle_gamma    90

_symmetry_space_group_name_H-M    "P 1"
_symmetry_int_tables_number       1

loop_
  _symmetry_equiv_pos_as_xyz
  'x, y, z'

loop_
  _atom_site_label
  _atom_site_occupancy
  _atom_site_fract_x
  _atom_site_fract_y
  _atom_site_fract_z
  _atom_site_thermal_displace_type
  _atom_site_B_iso_or_equiv
  _atom_site_type_symbol
  Cu1      1.0000 0.46213  0.25000  0.82745  Biso   1.000  Cu
  N1       1.0000 0.44130  0.10760  0.76290  Biso   1.000  N 
  C1       1.0000 0.62800  0.09610  0.66810  Biso   1.000  C 
  C2       1.0000 0.71250  0.17550  0.60150  Biso   1.000  C 
  C3       1.0000 0.87060  0.17270  0.49530  Biso   1.000  C 
  C4       1.0000 0.94500  0.25000  0.44120  Biso   1.000  C 
  C5       1.0000 0.87060  0.32730  0.49530  Biso   1.000  C 
  H1       1.0000 0.92900  0.38300  0.46700  Biso   1.000  H 
  C6       1.0000 0.71250  0.32450  0.60150  Biso   1.000  C 
  N2       1.0000 0.63000  0.25000  0.65360  Biso   1.000  N 
  C7       1.0000 0.62800  0.40390  0.66810  Biso   1.000  C 
  N3       1.0000 0.44130  0.39240  0.76290  Biso   1.000  N 
  N4       1.0000 0.38090  0.46230  0.82780  Biso   1.000  N 
  C8       1.0000 0.50650  0.53830  0.79370  Biso   1.000  C 
  N5       1.0000 0.67800  0.54960  0.69650  Biso   1.000  N 
  N6       1.0000 0.73890  0.48050  0.63110  Biso   1.000  N 
  C9       1.0000 0.44890  0.61510  0.86920  Biso   1.000  C 
  H2       1.0000 0.29980  0.65530  0.82630  Biso   1.000  H 
  H3       1.0000 0.66580  0.64260  0.89030  Biso   1.000  H 
  H4       1.0000 0.34390  0.59710  0.93990  Biso   1.000  H 
  H5       1.0000 0.04500  0.25000  0.36860  Biso   1.000  H 
  H6       1.0000 0.92900  0.11700  0.46700  Biso   1.000  H 
  N7       1.0000 0.73890  0.01950  0.63110  Biso   1.000  N 
  N8       1.0000 0.67800  0.95040  0.69650  Biso   1.000  N 
  C10      1.0000 0.50650  0.96170  0.79370  Biso   1.000  C 
  N9       1.0000 0.38090  0.03770  0.82780  Biso   1.000  N 
  C11      1.0000 0.44890  0.88490  0.86920  Biso   1.000  C 
  H7       1.0000 0.29980  0.84470  0.82630  Biso   1.000  H 
  H8       1.0000 0.66580  0.85740  0.89030  Biso   1.000  H 
  H9       1.0000 0.34390  0.90290  0.93990  Biso   1.000  H 
  Cl1      1.0000 0.98080  0.25000  0.93444  Biso   1.000  Cl
