data_image0
_cell_length_a       18.551
_cell_length_b       10.845
_cell_length_c       13.425
_cell_angle_alpha    90
_cell_angle_beta     123.63
_cell_angle_gamma    90

_symmetry_space_group_name_H-M    "P 1"
_symmetry_int_tables_number       1

loop_
  _symmetry_equiv_pos_as_xyz
  'x, y, z'

loop_
  _atom_site_label
  _atom_site_occupancy
  _atom_site_fract_x
  _atom_site_fract_y
  _atom_site_fract_z
  _atom_site_thermal_displace_type
  _atom_site_B_iso_or_equiv
  _atom_site_type_symbol
  Ag1      1.0000 0.25000  0.25000  0.00000  Biso   1.000  Ag
  N1       1.0000 0.25890  0.17330  0.86110  Biso   1.000  N 
  C1       1.0000 0.33130  0.11930  0.88710  Biso   1.000  C 
  H1       1.0000 0.37840  0.11840  0.96630  Biso   1.000  H 
  C2       1.0000 0.33970  0.06500  0.80270  Biso   1.000  C 
  H2       1.0000 0.39180  0.02800  0.82450  Biso   1.000  H 
  C3       1.0000 0.27080  0.06510  0.68480  Biso   1.000  C 
  H3       1.0000 0.27610  0.02830  0.62660  Biso   1.000  H 
  C4       1.0000 0.19330  0.12050  0.65340  Biso   1.000  C 
  Si1      1.0000 0.09646  0.12920  0.49428  Biso   1.000  Si
  C5       1.0000 0.12380  0.05000  0.39740  Biso   1.000  C 
  H4       1.0000 0.07680  0.05890  0.31520  Biso   1.000  H 
  H5       1.0000 0.17520  0.08590  0.40890  Biso   1.000  H 
  H6       1.0000 0.13360  0.96400  0.41780  Biso   1.000  H 
  C6       1.0000 0.07330  0.29350  0.45150  Biso   1.000  C 
  H7       1.0000 0.06010  0.33460  0.50290  Biso   1.000  H 
  H8       1.0000 0.02470  0.29980  0.37010  Biso   1.000  H 
  H9       1.0000 0.12300  0.33130  0.45950  Biso   1.000  H 
  C7       1.0000 0.99660  0.06480  0.48610  Biso   1.000  C 
  H10      1.0000 0.98860  0.11010  0.54160  Biso   1.000  H 
  H11      1.0000 0.94580  0.07830  0.40620  Biso   1.000  H 
  C8       1.0000 0.00340  0.93520  0.51390  Biso   1.000  C 
  H12      1.0000 0.01140  0.88990  0.45840  Biso   1.000  H 
  H13      1.0000 0.05420  0.92170  0.59380  Biso   1.000  H 
  Si2      1.0000 0.90354  0.87080  0.50572  Biso   1.000  Si
  C9       1.0000 0.92670  0.70650  0.54850  Biso   1.000  C 
  H14      1.0000 0.87700  0.66870  0.54050  Biso   1.000  H 
  H15      1.0000 0.93990  0.66540  0.49710  Biso   1.000  H 
  H16      1.0000 0.97530  0.70020  0.62990  Biso   1.000  H 
  C10      1.0000 0.87620  0.95000  0.60260  Biso   1.000  C 
  H17      1.0000 0.92320  0.94110  0.68480  Biso   1.000  H 
  H18      1.0000 0.82480  0.91410  0.59110  Biso   1.000  H 
  H19      1.0000 0.86640  0.03600  0.58220  Biso   1.000  H 
  C11      1.0000 0.80670  0.87950  0.34660  Biso   1.000  C 
  C12      1.0000 0.72920  0.93490  0.31520  Biso   1.000  C 
  C13      1.0000 0.66030  0.93500  0.19730  Biso   1.000  C 
  H20      1.0000 0.60820  0.97200  0.17550  Biso   1.000  H 
  C14      1.0000 0.66870  0.88070  0.11290  Biso   1.000  C 
  H21      1.0000 0.62160  0.88160  0.03370  Biso   1.000  H 
  N2       1.0000 0.74110  0.82670  0.13890  Biso   1.000  N 
  C15      1.0000 0.80790  0.82790  0.25350  Biso   1.000  C 
  H22      1.0000 0.85910  0.79110  0.27190  Biso   1.000  H 
  Ag2      1.0000 0.75000  0.75000  0.00000  Biso   1.000  Ag
  N3       1.0000 0.75890  0.67330  0.86110  Biso   1.000  N 
  C16      1.0000 0.83130  0.61930  0.88710  Biso   1.000  C 
  H23      1.0000 0.87840  0.61840  0.96630  Biso   1.000  H 
  C17      1.0000 0.83970  0.56500  0.80270  Biso   1.000  C 
  H24      1.0000 0.89180  0.52800  0.82450  Biso   1.000  H 
  C18      1.0000 0.77080  0.56510  0.68480  Biso   1.000  C 
  H25      1.0000 0.77610  0.52830  0.62660  Biso   1.000  H 
  C19      1.0000 0.69330  0.62050  0.65340  Biso   1.000  C 
  C20      1.0000 0.69210  0.67210  0.74650  Biso   1.000  C 
  H26      1.0000 0.64090  0.70890  0.72810  Biso   1.000  H 
  Si3      1.0000 0.59646  0.62920  0.49428  Biso   1.000  Si
  C21      1.0000 0.62380  0.55000  0.39740  Biso   1.000  C 
  H27      1.0000 0.63360  0.46400  0.41780  Biso   1.000  H 
  H28      1.0000 0.57680  0.55890  0.31520  Biso   1.000  H 
  H29      1.0000 0.67520  0.58590  0.40890  Biso   1.000  H 
  C22      1.0000 0.49660  0.56480  0.48610  Biso   1.000  C 
  H30      1.0000 0.44580  0.57830  0.40620  Biso   1.000  H 
  C23      1.0000 0.50340  0.43520  0.51390  Biso   1.000  C 
  H31      1.0000 0.55420  0.42170  0.59380  Biso   1.000  H 
  Si4      1.0000 0.40354  0.37080  0.50572  Biso   1.000  Si
  C24      1.0000 0.30670  0.37950  0.34660  Biso   1.000  C 
  C25      1.0000 0.22920  0.43490  0.31520  Biso   1.000  C 
  C26      1.0000 0.16030  0.43500  0.19730  Biso   1.000  C 
  H32      1.0000 0.10820  0.47200  0.17550  Biso   1.000  H 
  C27      1.0000 0.16870  0.38070  0.11290  Biso   1.000  C 
  H33      1.0000 0.12160  0.38160  0.03370  Biso   1.000  H 
  N4       1.0000 0.24110  0.32670  0.13890  Biso   1.000  N 
  C28      1.0000 0.30790  0.32790  0.25350  Biso   1.000  C 
  H34      1.0000 0.35910  0.29110  0.27190  Biso   1.000  H 
  H35      1.0000 0.22390  0.47170  0.37340  Biso   1.000  H 
  C29      1.0000 0.42670  0.20650  0.54850  Biso   1.000  C 
  H36      1.0000 0.43990  0.16540  0.49710  Biso   1.000  H 
  H37      1.0000 0.37700  0.16870  0.54050  Biso   1.000  H 
  H38      1.0000 0.47530  0.20020  0.62990  Biso   1.000  H 
  C30      1.0000 0.37620  0.45000  0.60260  Biso   1.000  C 
  H39      1.0000 0.42320  0.44110  0.68480  Biso   1.000  H 
  H40      1.0000 0.32480  0.41410  0.59110  Biso   1.000  H 
  H41      1.0000 0.36640  0.53600  0.58220  Biso   1.000  H 
  H42      1.0000 0.51140  0.38990  0.45840  Biso   1.000  H 
  H43      1.0000 0.48860  0.61010  0.54160  Biso   1.000  H 
  C31      1.0000 0.57330  0.79350  0.45150  Biso   1.000  C 
  H44      1.0000 0.52470  0.79980  0.37010  Biso   1.000  H 
  H45      1.0000 0.56010  0.83460  0.50290  Biso   1.000  H 
  H46      1.0000 0.62300  0.83130  0.45950  Biso   1.000  H 
  H47      1.0000 0.72390  0.97170  0.37340  Biso   1.000  H 
  C32      1.0000 0.19210  0.17210  0.74650  Biso   1.000  C 
  H48      1.0000 0.14090  0.20890  0.72810  Biso   1.000  H 
