data_image0
_cell_length_a       21.9381
_cell_length_b       16.7198
_cell_length_c       25.5037
_cell_angle_alpha    90
_cell_angle_beta     115.074
_cell_angle_gamma    90

_symmetry_space_group_name_H-M    "P 1"
_symmetry_int_tables_number       1

loop_
  _symmetry_equiv_pos_as_xyz
  'x, y, z'

loop_
  _atom_site_label
  _atom_site_occupancy
  _atom_site_fract_x
  _atom_site_fract_y
  _atom_site_fract_z
  _atom_site_thermal_displace_type
  _atom_site_B_iso_or_equiv
  _atom_site_type_symbol
  Ag1      1.0000 0.84424  0.04367  0.36665  Biso   1.000  Ag
  N1       1.0000 0.77530  0.02970  0.26930  Biso   1.000  N 
  C1       1.0000 0.80610  0.99490  0.24030  Biso   1.000  C 
  C2       1.0000 0.77750  0.98370  0.18160  Biso   1.000  C 
  H1       1.0000 0.80190  0.96020  0.16340  Biso   1.000  H 
  C3       1.0000 0.71200  0.00800  0.14990  Biso   1.000  C 
  C4       1.0000 0.67990  0.99790  0.08570  Biso   1.000  C 
  N2       1.0000 0.71030  0.95080  0.06240  Biso   1.000  N 
  C5       1.0000 0.68140  0.94760  0.00460  Biso   1.000  C 
  C6       1.0000 0.71420  0.89900  0.97550  Biso   1.000  C 
  C7       1.0000 0.68550  0.89000  0.91640  Biso   1.000  C 
  H2       1.0000 0.64360  0.91230  0.89410  Biso   1.000  H 
  C8       1.0000 0.71970  0.84710  0.89000  Biso   1.000  C 
  H3       1.0000 0.70020  0.84240  0.84990  Biso   1.000  H 
  N3       1.0000 0.77950  0.81250  0.92050  Biso   1.000  N 
  Ag2      1.0000 0.82144  0.74312  0.86622  Biso   1.000  Ag
  N4       1.0000 0.80010  0.74530  0.76870  Biso   1.000  N 
  C9       1.0000 0.74570  0.70620  0.73480  Biso   1.000  C 
  C10      1.0000 0.71450  0.71320  0.67640  Biso   1.000  C 
  H4       1.0000 0.67510  0.68520  0.65500  Biso   1.000  H 
  C11      1.0000 0.74280  0.76320  0.64900  Biso   1.000  C 
  C12      1.0000 0.70940  0.77430  0.58530  Biso   1.000  C 
  N5       1.0000 0.65200  0.73450  0.55690  Biso   1.000  N 
  C13      1.0000 0.62300  0.74450  0.49980  Biso   1.000  C 
  N6       1.0000 0.64750  0.79040  0.47040  Biso   1.000  N 
  C14      1.0000 0.70450  0.82830  0.50250  Biso   1.000  C 
  N7       1.0000 0.73730  0.82290  0.56050  Biso   1.000  N 
  C15      1.0000 0.73500  0.87910  0.47230  Biso   1.000  C 
  C16      1.0000 0.70390  0.89100  0.41350  Biso   1.000  C 
  H5       1.0000 0.66160  0.86910  0.39180  Biso   1.000  H 
  C17      1.0000 0.73560  0.93530  0.38700  Biso   1.000  C 
  H6       1.0000 0.71440  0.94160  0.34710  Biso   1.000  H 
  N8       1.0000 0.79520  0.96950  0.41600  Biso   1.000  N 
  C18      1.0000 0.82470  0.95860  0.47270  Biso   1.000  C 
  H7       1.0000 0.86720  0.98090  0.49300  Biso   1.000  H 
  C19      1.0000 0.79750  0.91720  0.50330  Biso   1.000  C 
  H8       1.0000 0.81930  0.91410  0.54340  Biso   1.000  H 
  C20      1.0000 0.55960  0.69970  0.46740  Biso   1.000  C 
  C21      1.0000 0.53260  0.69020  0.40880  Biso   1.000  C 
  C22      1.0000 0.47260  0.64850  0.38140  Biso   1.000  C 
  N9       1.0000 0.43950  0.61850  0.41020  Biso   1.000  N 
  Ag3      1.0000 0.34424  0.54367  0.36665  Biso   1.000  Ag
  N10      1.0000 0.29520  0.46950  0.41600  Biso   1.000  N 
  C23      1.0000 0.23560  0.43530  0.38700  Biso   1.000  C 
  H9       1.0000 0.21440  0.44160  0.34710  Biso   1.000  H 
  C24      1.0000 0.20390  0.39100  0.41350  Biso   1.000  C 
  H10      1.0000 0.16160  0.36910  0.39180  Biso   1.000  H 
  C25      1.0000 0.23500  0.37910  0.47230  Biso   1.000  C 
  C26      1.0000 0.20450  0.32830  0.50250  Biso   1.000  C 
  N11      1.0000 0.14750  0.29040  0.47040  Biso   1.000  N 
  C27      1.0000 0.12300  0.24450  0.49980  Biso   1.000  C 
  N12      1.0000 0.15200  0.23450  0.55690  Biso   1.000  N 
  C28      1.0000 0.20940  0.27430  0.58530  Biso   1.000  C 
  N13      1.0000 0.23730  0.32290  0.56050  Biso   1.000  N 
  C29      1.0000 0.24280  0.26320  0.64900  Biso   1.000  C 
  C30      1.0000 0.21450  0.21320  0.67640  Biso   1.000  C 
  H11      1.0000 0.17510  0.18520  0.65500  Biso   1.000  H 
  C31      1.0000 0.24570  0.20620  0.73480  Biso   1.000  C 
  H12      1.0000 0.22710  0.17100  0.75230  Biso   1.000  H 
  N14      1.0000 0.30010  0.24530  0.76870  Biso   1.000  N 
  Ag4      1.0000 0.32144  0.24312  0.86622  Biso   1.000  Ag
  N15      1.0000 0.27950  0.31250  0.92050  Biso   1.000  N 
  C32      1.0000 0.21970  0.34710  0.89000  Biso   1.000  C 
  C33      1.0000 0.18550  0.39000  0.91640  Biso   1.000  C 
  H13      1.0000 0.14360  0.41230  0.89410  Biso   1.000  H 
  C34      1.0000 0.21420  0.39900  0.97550  Biso   1.000  C 
  C35      1.0000 0.27630  0.36170  0.00730  Biso   1.000  C 
  H14      1.0000 0.29700  0.36540  0.04750  Biso   1.000  H 
  C36      1.0000 0.30620  0.31940  0.97780  Biso   1.000  C 
  H15      1.0000 0.34720  0.29450  0.99920  Biso   1.000  H 
  C37      1.0000 0.18140  0.44760  0.00460  Biso   1.000  C 
  N16      1.0000 0.21030  0.45080  0.06240  Biso   1.000  N 
  C38      1.0000 0.17990  0.49790  0.08570  Biso   1.000  C 
  N17      1.0000 0.12250  0.53720  0.05630  Biso   1.000  N 
  C39      1.0000 0.09750  0.52820  0.99860  Biso   1.000  C 
  N18      1.0000 0.12480  0.48690  0.97070  Biso   1.000  N 
  C40      1.0000 0.03280  0.57260  0.96470  Biso   1.000  C 
  C41      1.0000 0.00110  0.57110  0.90490  Biso   1.000  C 
  H16      1.0000 0.01830  0.54090  0.88360  Biso   1.000  H 
  C42      1.0000 0.94360  0.61540  0.87780  Biso   1.000  C 
  H17      1.0000 0.92460  0.61760  0.83760  Biso   1.000  H 
  N19      1.0000 0.91280  0.65570  0.90510  Biso   1.000  N 
  C43      1.0000 0.94340  0.65510  0.96220  Biso   1.000  C 
  H18      1.0000 0.92380  0.68360  0.98240  Biso   1.000  H 
  C44      1.0000 0.00300  0.61470  0.99400  Biso   1.000  C 
  H19      1.0000 0.02240  0.61600  0.03430  Biso   1.000  H 
  C45      1.0000 0.21200  0.50800  0.14990  Biso   1.000  C 
  C46      1.0000 0.27750  0.48370  0.18160  Biso   1.000  C 
  H20      1.0000 0.30190  0.46020  0.16340  Biso   1.000  H 
  C47      1.0000 0.30610  0.49490  0.24030  Biso   1.000  C 
  H21      1.0000 0.34990  0.47700  0.26130  Biso   1.000  H 
  N20      1.0000 0.27530  0.52970  0.26930  Biso   1.000  N 
  C48      1.0000 0.21080  0.55350  0.23780  Biso   1.000  C 
  H22      1.0000 0.18750  0.57720  0.25700  Biso   1.000  H 
  C49      1.0000 0.17860  0.54420  0.17900  Biso   1.000  C 
  H23      1.0000 0.13460  0.56210  0.15870  Biso   1.000  H 
  H24      1.0000 0.20020  0.34240  0.84990  Biso   1.000  H 
  N21      1.0000 0.41280  0.15570  0.90510  Biso   1.000  N 
  C50      1.0000 0.44340  0.15510  0.96220  Biso   1.000  C 
  H25      1.0000 0.42380  0.18360  0.98240  Biso   1.000  H 
  C51      1.0000 0.50300  0.11470  0.99400  Biso   1.000  C 
  C52      1.0000 0.53280  0.07260  0.96470  Biso   1.000  C 
  C53      1.0000 0.50110  0.07110  0.90490  Biso   1.000  C 
  C54      1.0000 0.44360  0.11540  0.87780  Biso   1.000  C 
  H26      1.0000 0.42460  0.11760  0.83760  Biso   1.000  H 
  H27      1.0000 0.51830  0.04090  0.88360  Biso   1.000  H 
  C55      1.0000 0.59750  0.02820  0.99860  Biso   1.000  C 
  N22      1.0000 0.62480  0.98690  0.97070  Biso   1.000  N 
  N23      1.0000 0.62250  0.03720  0.05630  Biso   1.000  N 
  H28      1.0000 0.52240  0.11600  0.03430  Biso   1.000  H 
  C56      1.0000 0.32750  0.29030  0.74230  Biso   1.000  C 
  H29      1.0000 0.36680  0.31760  0.76520  Biso   1.000  H 
  C57      1.0000 0.30220  0.30040  0.68260  Biso   1.000  C 
  H30      1.0000 0.32490  0.33120  0.66610  Biso   1.000  H 
  C58      1.0000 0.05960  0.19970  0.46740  Biso   1.000  C 
  C59      1.0000 0.02530  0.16630  0.49700  Biso   1.000  C 
  H31      1.0000 0.04210  0.17120  0.53700  Biso   1.000  H 
  C60      1.0000 0.96730  0.12690  0.46710  Biso   1.000  C 
  H32      1.0000 0.94540  0.10410  0.48770  Biso   1.000  H 
  N24      1.0000 0.93950  0.11850  0.41020  Biso   1.000  N 
  C61      1.0000 0.97260  0.14850  0.38140  Biso   1.000  C 
  H33      1.0000 0.95490  0.14140  0.34150  Biso   1.000  H 
  C62      1.0000 0.03260  0.19020  0.40880  Biso   1.000  C 
  H34      1.0000 0.05410  0.21140  0.38740  Biso   1.000  H 
  C63      1.0000 0.29750  0.41720  0.50330  Biso   1.000  C 
  H35      1.0000 0.31930  0.41410  0.54340  Biso   1.000  H 
  C64      1.0000 0.32470  0.45860  0.47270  Biso   1.000  C 
  H36      1.0000 0.36720  0.48090  0.49300  Biso   1.000  H 
  C65      1.0000 0.46730  0.62690  0.46710  Biso   1.000  C 
  H37      1.0000 0.44540  0.60410  0.48770  Biso   1.000  H 
  C66      1.0000 0.52530  0.66630  0.49700  Biso   1.000  C 
  H38      1.0000 0.54210  0.67120  0.53700  Biso   1.000  H 
  H39      1.0000 0.45490  0.64140  0.34150  Biso   1.000  H 
  H40      1.0000 0.55410  0.71140  0.38740  Biso   1.000  H 
  C67      1.0000 0.80220  0.80040  0.68260  Biso   1.000  C 
  C68      1.0000 0.82750  0.79030  0.74230  Biso   1.000  C 
  H41      1.0000 0.86680  0.81760  0.76520  Biso   1.000  H 
  H42      1.0000 0.82490  0.83120  0.66610  Biso   1.000  H 
  H43      1.0000 0.72710  0.67100  0.75230  Biso   1.000  H 
  C69      1.0000 0.80620  0.81940  0.97780  Biso   1.000  C 
  H44      1.0000 0.84720  0.79450  0.99920  Biso   1.000  H 
  C70      1.0000 0.77630  0.86170  0.00730  Biso   1.000  C 
  H45      1.0000 0.79700  0.86540  0.04750  Biso   1.000  H 
  C71      1.0000 0.67860  0.04420  0.17900  Biso   1.000  C 
  H46      1.0000 0.63460  0.06210  0.15870  Biso   1.000  H 
  C72      1.0000 0.71080  0.05350  0.23780  Biso   1.000  C 
  H47      1.0000 0.68750  0.07720  0.25700  Biso   1.000  H 
  H48      1.0000 0.84990  0.97700  0.26130  Biso   1.000  H 
