data_image0
_cell_length_a       21.9416
_cell_length_b       16.7734
_cell_length_c       25.5513
_cell_angle_alpha    90
_cell_angle_beta     115.225
_cell_angle_gamma    90

_symmetry_space_group_name_H-M    "P 1"
_symmetry_int_tables_number       1

loop_
  _symmetry_equiv_pos_as_xyz
  'x, y, z'

loop_
  _atom_site_label
  _atom_site_occupancy
  _atom_site_fract_x
  _atom_site_fract_y
  _atom_site_fract_z
  _atom_site_thermal_displace_type
  _atom_site_B_iso_or_equiv
  _atom_site_type_symbol
  Ag1      1.0000 0.34426  0.04241  0.36722  Biso   1.000  Ag
  N1       1.0000 0.27450  0.02820  0.27000  Biso   1.000  N 
  C1       1.0000 0.30500  0.99430  0.24110  Biso   1.000  C 
  C2       1.0000 0.27720  0.98310  0.18210  Biso   1.000  C 
  H1       1.0000 0.30170  0.95970  0.16410  Biso   1.000  H 
  C3       1.0000 0.21160  0.00800  0.15060  Biso   1.000  C 
  C4       1.0000 0.17940  0.99850  0.08650  Biso   1.000  C 
  N2       1.0000 0.21030  0.95120  0.06310  Biso   1.000  N 
  C5       1.0000 0.18120  0.94780  0.00550  Biso   1.000  C 
  N3       1.0000 0.12510  0.98780  0.97200  Biso   1.000  N 
  C6       1.0000 0.09710  0.02920  0.99940  Biso   1.000  C 
  C7       1.0000 0.03290  0.07350  0.96520  Biso   1.000  C 
  C8       1.0000 0.00120  0.07390  0.90610  Biso   1.000  C 
  H2       1.0000 0.01880  0.04460  0.88490  Biso   1.000  H 
  C9       1.0000 0.94360  0.11720  0.87810  Biso   1.000  C 
  H3       1.0000 0.92460  0.11920  0.83790  Biso   1.000  H 
  N4       1.0000 0.91310  0.15680  0.90570  Biso   1.000  N 
  Ag2      1.0000 0.82144  0.24466  0.86681  Biso   1.000  Ag
  N5       1.0000 0.77970  0.31340  0.92130  Biso   1.000  N 
  C10      1.0000 0.72000  0.34860  0.89140  Biso   1.000  C 
  C11      1.0000 0.68600  0.39090  0.91740  Biso   1.000  C 
  H4       1.0000 0.64440  0.41390  0.89500  Biso   1.000  H 
  C12      1.0000 0.71390  0.39860  0.97590  Biso   1.000  C 
  C13      1.0000 0.68120  0.44780  0.00550  Biso   1.000  C 
  N6       1.0000 0.71030  0.45120  0.06310  Biso   1.000  N 
  C14      1.0000 0.67940  0.49850  0.08650  Biso   1.000  C 
  N7       1.0000 0.62250  0.53780  0.05690  Biso   1.000  N 
  C15      1.0000 0.59710  0.52920  0.99940  Biso   1.000  C 
  N8       1.0000 0.62510  0.48780  0.97200  Biso   1.000  N 
  C16      1.0000 0.53290  0.57350  0.96520  Biso   1.000  C 
  C17      1.0000 0.50120  0.57390  0.90610  Biso   1.000  C 
  C18      1.0000 0.44360  0.61720  0.87810  Biso   1.000  C 
  H5       1.0000 0.42460  0.61920  0.83790  Biso   1.000  H 
  N9       1.0000 0.41310  0.65680  0.90570  Biso   1.000  N 
  Ag3      1.0000 0.32144  0.74466  0.86681  Biso   1.000  Ag
  N10      1.0000 0.27970  0.81340  0.92130  Biso   1.000  N 
  C19      1.0000 0.22000  0.84860  0.89140  Biso   1.000  C 
  C20      1.0000 0.18600  0.89090  0.91740  Biso   1.000  C 
  H6       1.0000 0.14440  0.91390  0.89500  Biso   1.000  H 
  C21      1.0000 0.21390  0.89860  0.97590  Biso   1.000  C 
  C22      1.0000 0.27630  0.86200  0.00830  Biso   1.000  C 
  H7       1.0000 0.29680  0.86530  0.04850  Biso   1.000  H 
  C23      1.0000 0.30670  0.82050  0.97840  Biso   1.000  C 
  H8       1.0000 0.34820  0.79640  0.99970  Biso   1.000  H 
  H9       1.0000 0.20040  0.84450  0.85130  Biso   1.000  H 
  N11      1.0000 0.30030  0.74750  0.76960  Biso   1.000  N 
  C24      1.0000 0.32650  0.79320  0.74230  Biso   1.000  C 
  H10      1.0000 0.36530  0.82160  0.76480  Biso   1.000  H 
  C25      1.0000 0.30140  0.80220  0.68350  Biso   1.000  C 
  H11      1.0000 0.32360  0.83350  0.66700  Biso   1.000  H 
  C26      1.0000 0.24240  0.76370  0.64970  Biso   1.000  C 
  C27      1.0000 0.21440  0.71340  0.67670  Biso   1.000  C 
  H12      1.0000 0.17520  0.68530  0.65490  Biso   1.000  H 
  C28      1.0000 0.24510  0.70560  0.73550  Biso   1.000  C 
  H13      1.0000 0.22720  0.66970  0.75290  Biso   1.000  H 
  C29      1.0000 0.20940  0.77460  0.58600  Biso   1.000  C 
  N12      1.0000 0.15230  0.73400  0.55770  Biso   1.000  N 
  C30      1.0000 0.12380  0.74380  0.50070  Biso   1.000  C 
  C31      1.0000 0.05990  0.69950  0.46810  Biso   1.000  C 
  C32      1.0000 0.02520  0.66570  0.49760  Biso   1.000  C 
  H14      1.0000 0.04190  0.67030  0.53750  Biso   1.000  H 
  C33      1.0000 0.96720  0.62630  0.46700  Biso   1.000  C 
  N13      1.0000 0.93930  0.61770  0.41030  Biso   1.000  N 
  Ag4      1.0000 0.84426  0.54241  0.36722  Biso   1.000  Ag
  N14      1.0000 0.77450  0.52820  0.27000  Biso   1.000  N 
  C34      1.0000 0.71100  0.55260  0.23870  Biso   1.000  C 
  H15      1.0000 0.68790  0.57660  0.25780  Biso   1.000  H 
  C35      1.0000 0.67830  0.54350  0.17930  Biso   1.000  C 
  C36      1.0000 0.71160  0.50800  0.15060  Biso   1.000  C 
  C37      1.0000 0.77720  0.48310  0.18210  Biso   1.000  C 
  H16      1.0000 0.80170  0.45970  0.16410  Biso   1.000  H 
  C38      1.0000 0.80500  0.49430  0.24110  Biso   1.000  C 
  H17      1.0000 0.84890  0.47640  0.26230  Biso   1.000  H 
  H18      1.0000 0.63420  0.56120  0.15910  Biso   1.000  H 
  N15      1.0000 0.79560  0.46940  0.41670  Biso   1.000  N 
  C39      1.0000 0.73580  0.43490  0.38790  Biso   1.000  C 
  H19      1.0000 0.71420  0.44170  0.34810  Biso   1.000  H 
  C40      1.0000 0.70420  0.38960  0.41420  Biso   1.000  C 
  H20      1.0000 0.66220  0.36700  0.39220  Biso   1.000  H 
  C41      1.0000 0.73540  0.37820  0.47320  Biso   1.000  C 
  C42      1.0000 0.79760  0.41650  0.50440  Biso   1.000  C 
  H21      1.0000 0.81950  0.41320  0.54450  Biso   1.000  H 
  C43      1.0000 0.82490  0.45900  0.47330  Biso   1.000  C 
  H22      1.0000 0.86700  0.48200  0.49380  Biso   1.000  H 
  C44      1.0000 0.70500  0.32790  0.50360  Biso   1.000  C 
  N16      1.0000 0.64820  0.28930  0.47120  Biso   1.000  N 
  C45      1.0000 0.62380  0.24380  0.50070  Biso   1.000  C 
  N17      1.0000 0.65230  0.23400  0.55770  Biso   1.000  N 
  C46      1.0000 0.70940  0.27460  0.58600  Biso   1.000  C 
  N18      1.0000 0.73760  0.32280  0.56160  Biso   1.000  N 
  C47      1.0000 0.74240  0.26370  0.64970  Biso   1.000  C 
  C48      1.0000 0.71440  0.21340  0.67670  Biso   1.000  C 
  H23      1.0000 0.67520  0.18530  0.65490  Biso   1.000  H 
  C49      1.0000 0.74510  0.20560  0.73550  Biso   1.000  C 
  H24      1.0000 0.72720  0.16970  0.75290  Biso   1.000  H 
  N19      1.0000 0.80030  0.24750  0.76960  Biso   1.000  N 
  C50      1.0000 0.82650  0.29320  0.74230  Biso   1.000  C 
  H25      1.0000 0.86530  0.32160  0.76480  Biso   1.000  H 
  C51      1.0000 0.80140  0.30220  0.68350  Biso   1.000  C 
  H26      1.0000 0.82360  0.33350  0.66700  Biso   1.000  H 
  C52      1.0000 0.55990  0.19950  0.46810  Biso   1.000  C 
  C53      1.0000 0.52520  0.16570  0.49760  Biso   1.000  C 
  C54      1.0000 0.46720  0.12630  0.46700  Biso   1.000  C 
  N20      1.0000 0.43930  0.11770  0.41030  Biso   1.000  N 
  C55      1.0000 0.47270  0.14820  0.38250  Biso   1.000  C 
  H27      1.0000 0.45500  0.14160  0.34260  Biso   1.000  H 
  C56      1.0000 0.53280  0.18960  0.40970  Biso   1.000  C 
  H28      1.0000 0.55430  0.21040  0.38830  Biso   1.000  H 
  H29      1.0000 0.44530  0.10350  0.48750  Biso   1.000  H 
  H30      1.0000 0.54190  0.17030  0.53750  Biso   1.000  H 
  C57      1.0000 0.97270  0.64820  0.38250  Biso   1.000  C 
  H31      1.0000 0.95500  0.64160  0.34260  Biso   1.000  H 
  C58      1.0000 0.03280  0.68960  0.40970  Biso   1.000  C 
  H32      1.0000 0.05430  0.71040  0.38830  Biso   1.000  H 
  H33      1.0000 0.94530  0.60350  0.48750  Biso   1.000  H 
  N21      1.0000 0.14820  0.78930  0.47120  Biso   1.000  N 
  C59      1.0000 0.20500  0.82790  0.50360  Biso   1.000  C 
  N22      1.0000 0.23760  0.82280  0.56160  Biso   1.000  N 
  C60      1.0000 0.23540  0.87820  0.47320  Biso   1.000  C 
  C61      1.0000 0.29760  0.91650  0.50440  Biso   1.000  C 
  H34      1.0000 0.31950  0.91320  0.54450  Biso   1.000  H 
  C62      1.0000 0.32490  0.95900  0.47330  Biso   1.000  C 
  N23      1.0000 0.29560  0.96940  0.41670  Biso   1.000  N 
  C63      1.0000 0.23580  0.93490  0.38790  Biso   1.000  C 
  H35      1.0000 0.21420  0.94170  0.34810  Biso   1.000  H 
  C64      1.0000 0.20420  0.88960  0.41420  Biso   1.000  C 
  H36      1.0000 0.16220  0.86700  0.39220  Biso   1.000  H 
  H37      1.0000 0.36700  0.98200  0.49380  Biso   1.000  H 
  C65      1.0000 0.44370  0.65570  0.96330  Biso   1.000  C 
  H38      1.0000 0.42400  0.68360  0.98360  Biso   1.000  H 
  C66      1.0000 0.50320  0.61530  0.99470  Biso   1.000  C 
  H39      1.0000 0.52270  0.61620  0.03500  Biso   1.000  H 
  H40      1.0000 0.51880  0.54460  0.88490  Biso   1.000  H 
  C67      1.0000 0.77630  0.36200  0.00830  Biso   1.000  C 
  H41      1.0000 0.79680  0.36530  0.04850  Biso   1.000  H 
  C68      1.0000 0.80670  0.32050  0.97840  Biso   1.000  C 
  H42      1.0000 0.84820  0.29640  0.99970  Biso   1.000  H 
  H43      1.0000 0.70040  0.34450  0.85130  Biso   1.000  H 
  C69      1.0000 0.94370  0.15570  0.96330  Biso   1.000  C 
  H44      1.0000 0.92400  0.18360  0.98360  Biso   1.000  H 
  C70      1.0000 0.00320  0.11530  0.99470  Biso   1.000  C 
  H45      1.0000 0.02270  0.11620  0.03500  Biso   1.000  H 
  N24      1.0000 0.12250  0.03780  0.05690  Biso   1.000  N 
  C71      1.0000 0.17830  0.04350  0.17930  Biso   1.000  C 
  H46      1.0000 0.13420  0.06120  0.15910  Biso   1.000  H 
  C72      1.0000 0.21100  0.05260  0.23870  Biso   1.000  C 
  H47      1.0000 0.18790  0.07660  0.25780  Biso   1.000  H 
  H48      1.0000 0.34890  0.97640  0.26230  Biso   1.000  H 
