data_image0
_cell_length_a       21.9504
_cell_length_b       16.7095
_cell_length_c       25.6128
_cell_angle_alpha    90
_cell_angle_beta     115.366
_cell_angle_gamma    90

_symmetry_space_group_name_H-M    "P 1"
_symmetry_int_tables_number       1

loop_
  _symmetry_equiv_pos_as_xyz
  'x, y, z'

loop_
  _atom_site_label
  _atom_site_occupancy
  _atom_site_fract_x
  _atom_site_fract_y
  _atom_site_fract_z
  _atom_site_thermal_displace_type
  _atom_site_B_iso_or_equiv
  _atom_site_type_symbol
  Ag1      1.0000 0.27363  0.20879  0.86794  Biso   1.000  Ag
  N1       1.0000 0.24630  0.22320  0.77100  Biso   1.000  N 
  C1       1.0000 0.27830  0.19820  0.73960  Biso   1.000  C 
  H1       1.0000 0.32020  0.17380  0.75860  Biso   1.000  H 
  C2       1.0000 0.25180  0.20710  0.68000  Biso   1.000  C 
  H2       1.0000 0.27580  0.18950  0.65980  Biso   1.000  H 
  C3       1.0000 0.18990  0.24200  0.65150  Biso   1.000  C 
  C4       1.0000 0.15830  0.25150  0.58720  Biso   1.000  C 
  N2       1.0000 0.18580  0.21290  0.55830  Biso   1.000  N 
  C5       1.0000 0.15310  0.21980  0.50030  Biso   1.000  C 
  C6       1.0000 0.18360  0.17590  0.46630  Biso   1.000  C 
  C7       1.0000 0.15500  0.17510  0.40700  Biso   1.000  C 
  C8       1.0000 0.18530  0.13100  0.37900  Biso   1.000  C 
  H3       1.0000 0.16420  0.12860  0.33890  Biso   1.000  H 
  N3       1.0000 0.24360  0.09140  0.40680  Biso   1.000  N 
  Ag2      1.0000 0.29557  0.00313  0.36744  Biso   1.000  Ag
  N4       1.0000 0.22030  0.00140  0.27060  Biso   1.000  N 
  C9       1.0000 0.16770  0.95460  0.24380  Biso   1.000  C 
  H4       1.0000 0.15260  0.92480  0.26670  Biso   1.000  H 
  C10      1.0000 0.13300  0.94600  0.18440  Biso   1.000  C 
  H5       1.0000 0.09440  0.91470  0.16810  Biso   1.000  H 
  C11      1.0000 0.15810  0.98580  0.15050  Biso   1.000  C 
  C12      1.0000 0.12690  0.97530  0.08720  Biso   1.000  C 
  N5       1.0000 0.07490  0.92720  0.06260  Biso   1.000  N 
  C13      1.0000 0.04960  0.92250  0.00460  Biso   1.000  C 
  N6       1.0000 0.07390  0.96100  0.97210  Biso   1.000  N 
  C14      1.0000 0.12750  0.00670  0.00170  Biso   1.000  C 
  N7       1.0000 0.15570  0.01710  0.05830  Biso   1.000  N 
  C15      1.0000 0.15890  0.05150  0.96900  Biso   1.000  C 
  C16      1.0000 0.22240  0.08510  0.99820  Biso   1.000  C 
  C17      1.0000 0.25100  0.12480  0.96810  Biso   1.000  C 
  N8       1.0000 0.22160  0.13450  0.91110  Biso   1.000  N 
  C18      1.0000 0.16050  0.10300  0.88420  Biso   1.000  C 
  H6       1.0000 0.13820  0.10980  0.84440  Biso   1.000  H 
  C19      1.0000 0.12760  0.06110  0.91060  Biso   1.000  C 
  H7       1.0000 0.08490  0.03970  0.88920  Biso   1.000  H 
  H8       1.0000 0.29370  0.14650  0.98860  Biso   1.000  H 
  H9       1.0000 0.24530  0.08040  0.03810  Biso   1.000  H 
  C20      1.0000 0.98850  0.87250  0.97450  Biso   1.000  C 
  C21      1.0000 0.95720  0.83410  0.00530  Biso   1.000  C 
  H10      1.0000 0.97510  0.83760  0.04540  Biso   1.000  H 
  C22      1.0000 0.89900  0.79090  0.97430  Biso   1.000  C 
  H11      1.0000 0.87770  0.76710  0.99490  Biso   1.000  H 
  N9       1.0000 0.87150  0.78090  0.91750  Biso   1.000  N 
  Ag3      1.0000 0.77363  0.70879  0.86794  Biso   1.000  Ag
  N10      1.0000 0.72160  0.63450  0.91110  Biso   1.000  N 
  C23      1.0000 0.75100  0.62480  0.96810  Biso   1.000  C 
  H12      1.0000 0.79370  0.64650  0.98860  Biso   1.000  H 
  C24      1.0000 0.72240  0.58510  0.99820  Biso   1.000  C 
  C25      1.0000 0.65890  0.55150  0.96900  Biso   1.000  C 
  C26      1.0000 0.62760  0.56110  0.91060  Biso   1.000  C 
  H13      1.0000 0.58490  0.53970  0.88920  Biso   1.000  H 
  C27      1.0000 0.66050  0.60300  0.88420  Biso   1.000  C 
  H14      1.0000 0.63820  0.60980  0.84440  Biso   1.000  H 
  C28      1.0000 0.62750  0.50670  0.00170  Biso   1.000  C 
  N11      1.0000 0.65570  0.51710  0.05830  Biso   1.000  N 
  C29      1.0000 0.62690  0.47530  0.08720  Biso   1.000  C 
  N12      1.0000 0.57490  0.42720  0.06260  Biso   1.000  N 
  C30      1.0000 0.54960  0.42250  0.00460  Biso   1.000  C 
  C31      1.0000 0.48850  0.37250  0.97450  Biso   1.000  C 
  C32      1.0000 0.45720  0.33410  0.00530  Biso   1.000  C 
  H15      1.0000 0.47510  0.33760  0.04540  Biso   1.000  H 
  C33      1.0000 0.39900  0.29090  0.97430  Biso   1.000  C 
  H16      1.0000 0.37770  0.26710  0.99490  Biso   1.000  H 
  N13      1.0000 0.37150  0.28090  0.91750  Biso   1.000  N 
  C34      1.0000 0.40290  0.31590  0.88880  Biso   1.000  C 
  C35      1.0000 0.46070  0.36090  0.91490  Biso   1.000  C 
  H17      1.0000 0.48090  0.38330  0.89300  Biso   1.000  H 
  H18      1.0000 0.38470  0.30950  0.84890  Biso   1.000  H 
  N14      1.0000 0.57390  0.46100  0.97210  Biso   1.000  N 
  C36      1.0000 0.65810  0.48580  0.15050  Biso   1.000  C 
  C37      1.0000 0.63300  0.44600  0.18440  Biso   1.000  C 
  H19      1.0000 0.59440  0.41470  0.16810  Biso   1.000  H 
  C38      1.0000 0.66770  0.45460  0.24380  Biso   1.000  C 
  H20      1.0000 0.65260  0.42480  0.26670  Biso   1.000  H 
  N15      1.0000 0.72030  0.50140  0.27060  Biso   1.000  N 
  Ag4      1.0000 0.79557  0.50313  0.36744  Biso   1.000  Ag
  N16      1.0000 0.74360  0.59140  0.40680  Biso   1.000  N 
  C39      1.0000 0.77070  0.59350  0.46460  Biso   1.000  C 
  C40      1.0000 0.74280  0.63390  0.49560  Biso   1.000  C 
  H21      1.0000 0.76340  0.63310  0.53580  Biso   1.000  H 
  C41      1.0000 0.68360  0.67590  0.46630  Biso   1.000  C 
  C42      1.0000 0.65500  0.67510  0.40700  Biso   1.000  C 
  H22      1.0000 0.61580  0.70390  0.38590  Biso   1.000  H 
  C43      1.0000 0.68530  0.63100  0.37900  Biso   1.000  C 
  H23      1.0000 0.66420  0.62860  0.33890  Biso   1.000  H 
  C44      1.0000 0.65310  0.71980  0.50030  Biso   1.000  C 
  N17      1.0000 0.68580  0.71290  0.55830  Biso   1.000  N 
  C45      1.0000 0.65830  0.75150  0.58720  Biso   1.000  C 
  N18      1.0000 0.60350  0.79880  0.56390  Biso   1.000  N 
  C46      1.0000 0.57460  0.80160  0.50600  Biso   1.000  C 
  N19      1.0000 0.59730  0.76110  0.47290  Biso   1.000  N 
  C47      1.0000 0.51240  0.85000  0.47690  Biso   1.000  C 
  C48      1.0000 0.48190  0.88730  0.50870  Biso   1.000  C 
  H24      1.0000 0.50130  0.88420  0.54880  Biso   1.000  H 
  C49      1.0000 0.42210  0.92910  0.47900  Biso   1.000  C 
  H25      1.0000 0.40190  0.95360  0.50020  Biso   1.000  H 
  N20      1.0000 0.39220  0.93580  0.42200  Biso   1.000  N 
  C50      1.0000 0.42220  0.89950  0.39190  Biso   1.000  C 
  H26      1.0000 0.40140  0.90250  0.35180  Biso   1.000  H 
  C51      1.0000 0.48190  0.85840  0.41800  Biso   1.000  C 
  H27      1.0000 0.50160  0.83620  0.39570  Biso   1.000  H 
  C52      1.0000 0.68990  0.74200  0.65150  Biso   1.000  C 
  C53      1.0000 0.65610  0.76770  0.68330  Biso   1.000  C 
  C54      1.0000 0.68640  0.75670  0.74190  Biso   1.000  C 
  N21      1.0000 0.74630  0.72320  0.77100  Biso   1.000  N 
  C55      1.0000 0.77830  0.69820  0.73960  Biso   1.000  C 
  H28      1.0000 0.82020  0.67380  0.75860  Biso   1.000  H 
  C56      1.0000 0.75180  0.70710  0.68000  Biso   1.000  C 
  H29      1.0000 0.77580  0.68950  0.65980  Biso   1.000  H 
  H30      1.0000 0.66330  0.77400  0.76290  Biso   1.000  H 
  H31      1.0000 0.61400  0.79180  0.66540  Biso   1.000  H 
  H32      1.0000 0.81080  0.56590  0.48480  Biso   1.000  H 
  N22      1.0000 0.89220  0.43580  0.42200  Biso   1.000  N 
  C57      1.0000 0.92220  0.39950  0.39190  Biso   1.000  C 
  H33      1.0000 0.90140  0.40250  0.35180  Biso   1.000  H 
  C58      1.0000 0.98190  0.35840  0.41800  Biso   1.000  C 
  H34      1.0000 0.00160  0.33620  0.39570  Biso   1.000  H 
  C59      1.0000 0.01240  0.35000  0.47690  Biso   1.000  C 
  C60      1.0000 0.98190  0.38730  0.50870  Biso   1.000  C 
  C61      1.0000 0.92210  0.42910  0.47900  Biso   1.000  C 
  H35      1.0000 0.90190  0.45360  0.50020  Biso   1.000  H 
  H36      1.0000 0.00130  0.38420  0.54880  Biso   1.000  H 
  C62      1.0000 0.07460  0.30160  0.50600  Biso   1.000  C 
  N23      1.0000 0.09730  0.26110  0.47290  Biso   1.000  N 
  N24      1.0000 0.10350  0.29880  0.56390  Biso   1.000  N 
  C63      1.0000 0.74150  0.54330  0.23660  Biso   1.000  C 
  H37      1.0000 0.77760  0.57820  0.25400  Biso   1.000  H 
  C64      1.0000 0.71240  0.53700  0.17730  Biso   1.000  C 
  H38      1.0000 0.72900  0.56670  0.15550  Biso   1.000  H 
  H39      1.0000 0.74530  0.58040  0.03810  Biso   1.000  H 
  C65      1.0000 0.90290  0.81590  0.88880  Biso   1.000  C 
  H40      1.0000 0.88470  0.80950  0.84890  Biso   1.000  H 
  C66      1.0000 0.96070  0.86090  0.91490  Biso   1.000  C 
  H41      1.0000 0.98090  0.88330  0.89300  Biso   1.000  H 
  C67      1.0000 0.21240  0.03700  0.17730  Biso   1.000  C 
  C68      1.0000 0.24150  0.04330  0.23660  Biso   1.000  C 
  H42      1.0000 0.27760  0.07820  0.25400  Biso   1.000  H 
  H43      1.0000 0.22900  0.06670  0.15550  Biso   1.000  H 
  C69      1.0000 0.27070  0.09350  0.46460  Biso   1.000  C 
  C70      1.0000 0.24280  0.13390  0.49560  Biso   1.000  C 
  H44      1.0000 0.26340  0.13310  0.53580  Biso   1.000  H 
  H45      1.0000 0.31080  0.06590  0.48480  Biso   1.000  H 
  H46      1.0000 0.11580  0.20390  0.38590  Biso   1.000  H 
  C71      1.0000 0.15610  0.26770  0.68330  Biso   1.000  C 
  C72      1.0000 0.18640  0.25670  0.74190  Biso   1.000  C 
  H47      1.0000 0.16330  0.27400  0.76290  Biso   1.000  H 
  H48      1.0000 0.11400  0.29180  0.66540  Biso   1.000  H 
