data_image0
_cell_length_a       22.0121
_cell_length_b       16.5301
_cell_length_c       25.6641
_cell_angle_alpha    90
_cell_angle_beta     115.386
_cell_angle_gamma    90

_symmetry_space_group_name_H-M    "P 1"
_symmetry_int_tables_number       1

loop_
  _symmetry_equiv_pos_as_xyz
  'x, y, z'

loop_
  _atom_site_label
  _atom_site_occupancy
  _atom_site_fract_x
  _atom_site_fract_y
  _atom_site_fract_z
  _atom_site_thermal_displace_type
  _atom_site_B_iso_or_equiv
  _atom_site_type_symbol
  Ag1      1.0000 0.77392  0.70883  0.36825  Biso   1.000  Ag
  Ag2      1.0000 0.79482  0.49904  0.36769  Biso   1.000  Ag
  N1       1.0000 0.74452  0.40950  0.40771  Biso   1.000  N 
  C1       1.0000 0.77190  0.40740  0.46567  Biso   1.000  C 
  H1       1.0000 0.81210  0.43490  0.48590  Biso   1.000  H 
  C2       1.0000 0.74355  0.36650  0.49678  Biso   1.000  C 
  C3       1.0000 0.68403  0.32510  0.46727  Biso   1.000  C 
  C4       1.0000 0.65530  0.32540  0.40776  Biso   1.000  C 
  H2       1.0000 0.61590  0.29690  0.38680  Biso   1.000  H 
  C5       1.0000 0.68640  0.36900  0.37999  Biso   1.000  C 
  H3       1.0000 0.66590  0.37040  0.33990  Biso   1.000  H 
  C6       1.0000 0.65399  0.28070  0.50136  Biso   1.000  C 
  N2       1.0000 0.59757  0.23950  0.47338  Biso   1.000  N 
  C7       1.0000 0.57521  0.19920  0.50726  Biso   1.000  C 
  N3       1.0000 0.60392  0.20100  0.56458  Biso   1.000  N 
  C8       1.0000 0.65897  0.24750  0.58851  Biso   1.000  C 
  N4       1.0000 0.68686  0.28730  0.55897  Biso   1.000  N 
  C9       1.0000 0.69040  0.25740  0.65193  Biso   1.000  C 
  C10      1.0000 0.65650  0.23170  0.68410  Biso   1.000  C 
  H4       1.0000 0.61430  0.20770  0.66620  Biso   1.000  H 
  C11      1.0000 0.68670  0.24270  0.74280  Biso   1.000  C 
  H5       1.0000 0.66370  0.22520  0.76380  Biso   1.000  H 
  N5       1.0000 0.74695  0.27680  0.77181  Biso   1.000  N 
  Ag3      1.0000 0.77392  0.29117  0.86825  Biso   1.000  Ag
  N6       1.0000 0.72223  0.36460  0.91198  Biso   1.000  N 
  C12      1.0000 0.75200  0.37360  0.96950  Biso   1.000  C 
  H6       1.0000 0.79450  0.35130  0.98980  Biso   1.000  H 
  C13      1.0000 0.72330  0.41370  0.99984  Biso   1.000  C 
  C14      1.0000 0.65995  0.44740  0.97042  Biso   1.000  C 
  C15      1.0000 0.62800  0.43820  0.91127  Biso   1.000  C 
  C16      1.0000 0.66070  0.39520  0.88433  Biso   1.000  C 
  H7       1.0000 0.63830  0.38730  0.84470  Biso   1.000  H 
  H8       1.0000 0.58560  0.46020  0.89000  Biso   1.000  H 
  C17      1.0000 0.62825  0.49280  0.00256  Biso   1.000  C 
  N7       1.0000 0.65590  0.48160  0.05942  Biso   1.000  N 
  C18      1.0000 0.62806  0.52370  0.08826  Biso   1.000  C 
  N8       1.0000 0.57492  0.57240  0.06312  Biso   1.000  N 
  C19      1.0000 0.55010  0.57730  0.00587  Biso   1.000  C 
  N9       1.0000 0.57457  0.53920  0.97277  Biso   1.000  N 
  C20      1.0000 0.48914  0.62800  0.97483  Biso   1.000  C 
  C21      1.0000 0.46090  0.63840  0.91588  Biso   1.000  C 
  H9       1.0000 0.48100  0.61490  0.89420  Biso   1.000  H 
  C22      1.0000 0.40320  0.68330  0.88908  Biso   1.000  C 
  N10      1.0000 0.37141  0.71910  0.91769  Biso   1.000  N 
  Ag4      1.0000 0.27392  0.79117  0.86825  Biso   1.000  Ag
  N11      1.0000 0.22223  0.86460  0.91198  Biso   1.000  N 
  C23      1.0000 0.25200  0.87360  0.96950  Biso   1.000  C 
  H10      1.0000 0.29450  0.85130  0.98980  Biso   1.000  H 
  C24      1.0000 0.22330  0.91370  0.99984  Biso   1.000  C 
  C25      1.0000 0.15995  0.94740  0.97042  Biso   1.000  C 
  C26      1.0000 0.12800  0.93820  0.91127  Biso   1.000  C 
  C27      1.0000 0.16070  0.89520  0.88433  Biso   1.000  C 
  H11      1.0000 0.13830  0.88730  0.84470  Biso   1.000  H 
  H12      1.0000 0.08560  0.96020  0.89000  Biso   1.000  H 
  C28      1.0000 0.12825  0.99280  0.00256  Biso   1.000  C 
  N12      1.0000 0.15590  0.98160  0.05942  Biso   1.000  N 
  C29      1.0000 0.12806  0.02370  0.08826  Biso   1.000  C 
  N13      1.0000 0.07492  0.07240  0.06312  Biso   1.000  N 
  C30      1.0000 0.05010  0.07730  0.00587  Biso   1.000  C 
  N14      1.0000 0.07457  0.03920  0.97277  Biso   1.000  N 
  C31      1.0000 0.98914  0.12800  0.97483  Biso   1.000  C 
  C32      1.0000 0.96090  0.13840  0.91588  Biso   1.000  C 
  H13      1.0000 0.98100  0.11490  0.89420  Biso   1.000  H 
  C33      1.0000 0.90320  0.18330  0.88908  Biso   1.000  C 
  H14      1.0000 0.88510  0.18940  0.84920  Biso   1.000  H 
  N15      1.0000 0.87141  0.21910  0.91769  Biso   1.000  N 
  C34      1.0000 0.89900  0.20930  0.97471  Biso   1.000  C 
  H15      1.0000 0.87760  0.23310  0.99520  Biso   1.000  H 
  C35      1.0000 0.95710  0.16610  0.00536  Biso   1.000  C 
  H16      1.0000 0.97470  0.16220  0.04530  Biso   1.000  H 
  C36      1.0000 0.15821  0.01330  0.15163  Biso   1.000  C 
  C37      1.0000 0.13370  0.05500  0.18550  Biso   1.000  C 
  H17      1.0000 0.09590  0.08790  0.16890  Biso   1.000  H 
  C38      1.0000 0.16680  0.04650  0.24420  Biso   1.000  C 
  H18      1.0000 0.15040  0.07520  0.26660  Biso   1.000  H 
  N16      1.0000 0.22110  0.99980  0.27175  Biso   1.000  N 
  Ag5      1.0000 0.29482  0.99904  0.36769  Biso   1.000  Ag
  N17      1.0000 0.24452  0.90950  0.40771  Biso   1.000  N 
  C39      1.0000 0.27190  0.90740  0.46567  Biso   1.000  C 
  H19      1.0000 0.31210  0.93490  0.48590  Biso   1.000  H 
  C40      1.0000 0.24355  0.86650  0.49678  Biso   1.000  C 
  C41      1.0000 0.18403  0.82510  0.46727  Biso   1.000  C 
  C42      1.0000 0.15530  0.82540  0.40776  Biso   1.000  C 
  H20      1.0000 0.11590  0.79690  0.38680  Biso   1.000  H 
  C43      1.0000 0.18640  0.86900  0.37999  Biso   1.000  C 
  H21      1.0000 0.16590  0.87040  0.33990  Biso   1.000  H 
  C44      1.0000 0.15399  0.78070  0.50136  Biso   1.000  C 
  N18      1.0000 0.09757  0.73950  0.47338  Biso   1.000  N 
  C45      1.0000 0.07521  0.69920  0.50726  Biso   1.000  C 
  C46      1.0000 0.01259  0.64990  0.47803  Biso   1.000  C 
  C47      1.0000 0.98206  0.64180  0.41884  Biso   1.000  C 
  C48      1.0000 0.92314  0.59950  0.39264  Biso   1.000  C 
  H22      1.0000 0.90380  0.59440  0.35270  Biso   1.000  H 
  N19      1.0000 0.89169  0.56460  0.42207  Biso   1.000  N 
  C49      1.0000 0.92210  0.57160  0.47970  Biso   1.000  C 
  H23      1.0000 0.90190  0.54710  0.50090  Biso   1.000  H 
  C50      1.0000 0.98160  0.61280  0.50948  Biso   1.000  C 
  H24      1.0000 0.00070  0.61580  0.54950  Biso   1.000  H 
  H25      1.0000 0.00150  0.66510  0.39670  Biso   1.000  H 
  N20      1.0000 0.10392  0.70100  0.56458  Biso   1.000  N 
  C51      1.0000 0.15897  0.74750  0.58851  Biso   1.000  C 
  N21      1.0000 0.18686  0.78730  0.55897  Biso   1.000  N 
  C52      1.0000 0.19040  0.75740  0.65193  Biso   1.000  C 
  C53      1.0000 0.25290  0.79280  0.68124  Biso   1.000  C 
  H26      1.0000 0.27690  0.81060  0.66120  Biso   1.000  H 
  C54      1.0000 0.27960  0.80170  0.74060  Biso   1.000  C 
  N22      1.0000 0.24695  0.77680  0.77181  Biso   1.000  N 
  C55      1.0000 0.18670  0.74270  0.74280  Biso   1.000  C 
  C56      1.0000 0.15650  0.73170  0.68410  Biso   1.000  C 
  H27      1.0000 0.11430  0.70770  0.66620  Biso   1.000  H 
  H28      1.0000 0.16370  0.72520  0.76380  Biso   1.000  H 
  H29      1.0000 0.32160  0.82570  0.75970  Biso   1.000  H 
  H30      1.0000 0.26420  0.86680  0.53690  Biso   1.000  H 
  Ag6      1.0000 0.27392  0.20883  0.36825  Biso   1.000  Ag
  N23      1.0000 0.24695  0.22320  0.27181  Biso   1.000  N 
  C57      1.0000 0.27960  0.19830  0.24060  Biso   1.000  C 
  C58      1.0000 0.25290  0.20720  0.18124  Biso   1.000  C 
  H31      1.0000 0.27690  0.18940  0.16120  Biso   1.000  H 
  C59      1.0000 0.19040  0.24260  0.15193  Biso   1.000  C 
  C60      1.0000 0.15650  0.26830  0.18410  Biso   1.000  C 
  H32      1.0000 0.11430  0.29230  0.16620  Biso   1.000  H 
  C61      1.0000 0.18670  0.25730  0.24280  Biso   1.000  C 
  H33      1.0000 0.16370  0.27480  0.26380  Biso   1.000  H 
  C62      1.0000 0.15897  0.25250  0.08851  Biso   1.000  C 
  N24      1.0000 0.10392  0.29900  0.06458  Biso   1.000  N 
  C63      1.0000 0.07521  0.30080  0.00726  Biso   1.000  C 
  N25      1.0000 0.09757  0.26050  0.97338  Biso   1.000  N 
  C64      1.0000 0.15399  0.21930  0.00136  Biso   1.000  C 
  N26      1.0000 0.18686  0.21270  0.05897  Biso   1.000  N 
  C65      1.0000 0.18403  0.17490  0.96727  Biso   1.000  C 
  C66      1.0000 0.15530  0.17460  0.90776  Biso   1.000  C 
  C67      1.0000 0.18640  0.13100  0.87999  Biso   1.000  C 
  H34      1.0000 0.16590  0.12960  0.83990  Biso   1.000  H 
  N27      1.0000 0.24452  0.09050  0.90771  Biso   1.000  N 
  Ag7      1.0000 0.29482  0.00096  0.86769  Biso   1.000  Ag
  N28      1.0000 0.22110  0.00020  0.77175  Biso   1.000  N 
  C68      1.0000 0.16680  0.95350  0.74420  Biso   1.000  C 
  H35      1.0000 0.15040  0.92480  0.76660  Biso   1.000  H 
  C69      1.0000 0.13370  0.94500  0.68550  Biso   1.000  C 
  H36      1.0000 0.09590  0.91210  0.66890  Biso   1.000  H 
  C70      1.0000 0.15821  0.98670  0.65163  Biso   1.000  C 
  C71      1.0000 0.12806  0.97630  0.58826  Biso   1.000  C 
  N29      1.0000 0.07492  0.92760  0.56312  Biso   1.000  N 
  C72      1.0000 0.05010  0.92270  0.50587  Biso   1.000  C 
  N30      1.0000 0.07457  0.96080  0.47277  Biso   1.000  N 
  C73      1.0000 0.12825  0.00720  0.50256  Biso   1.000  C 
  N31      1.0000 0.15590  0.01840  0.55942  Biso   1.000  N 
  C74      1.0000 0.15995  0.05260  0.47042  Biso   1.000  C 
  C75      1.0000 0.22330  0.08630  0.49984  Biso   1.000  C 
  H37      1.0000 0.24610  0.08170  0.53970  Biso   1.000  H 
  C76      1.0000 0.25200  0.12640  0.46950  Biso   1.000  C 
  H38      1.0000 0.29450  0.14870  0.48980  Biso   1.000  H 
  N32      1.0000 0.22223  0.13540  0.41198  Biso   1.000  N 
  C77      1.0000 0.16070  0.10480  0.38433  Biso   1.000  C 
  H39      1.0000 0.13830  0.11270  0.34470  Biso   1.000  H 
  C78      1.0000 0.12800  0.06180  0.41127  Biso   1.000  C 
  H40      1.0000 0.08560  0.03980  0.39000  Biso   1.000  H 
  C79      1.0000 0.98914  0.87200  0.47483  Biso   1.000  C 
  C80      1.0000 0.96090  0.86160  0.41588  Biso   1.000  C 
  H41      1.0000 0.98100  0.88510  0.39420  Biso   1.000  H 
  C81      1.0000 0.90320  0.81670  0.38908  Biso   1.000  C 
  H42      1.0000 0.88510  0.81060  0.34920  Biso   1.000  H 
  N33      1.0000 0.87141  0.78090  0.41769  Biso   1.000  N 
  C82      1.0000 0.89900  0.79070  0.47471  Biso   1.000  C 
  H43      1.0000 0.87760  0.76690  0.49520  Biso   1.000  H 
  C83      1.0000 0.95710  0.83390  0.50536  Biso   1.000  C 
  H44      1.0000 0.97470  0.83780  0.54530  Biso   1.000  H 
  C84      1.0000 0.21210  0.03790  0.67840  Biso   1.000  C 
  H45      1.0000 0.22840  0.06830  0.65660  Biso   1.000  H 
  C85      1.0000 0.24170  0.04370  0.73760  Biso   1.000  C 
  H46      1.0000 0.27750  0.07930  0.75490  Biso   1.000  H 
  N34      1.0000 0.39169  0.93540  0.92207  Biso   1.000  N 
  C86      1.0000 0.42314  0.90050  0.89264  Biso   1.000  C 
  H47      1.0000 0.40380  0.90560  0.85270  Biso   1.000  H 
  C87      1.0000 0.48206  0.85820  0.91884  Biso   1.000  C 
  H48      1.0000 0.50150  0.83490  0.89670  Biso   1.000  H 
  C88      1.0000 0.51259  0.85010  0.97803  Biso   1.000  C 
  C89      1.0000 0.48160  0.88720  0.00948  Biso   1.000  C 
  H49      1.0000 0.50070  0.88420  0.04950  Biso   1.000  H 
  C90      1.0000 0.42210  0.92840  0.97970  Biso   1.000  C 
  H50      1.0000 0.40190  0.95290  0.00090  Biso   1.000  H 
  C91      1.0000 0.57521  0.80080  0.00726  Biso   1.000  C 
  N35      1.0000 0.60392  0.79900  0.06458  Biso   1.000  N 
  C92      1.0000 0.65897  0.75250  0.08851  Biso   1.000  C 
  N36      1.0000 0.68686  0.71270  0.05897  Biso   1.000  N 
  C93      1.0000 0.65399  0.71930  0.00136  Biso   1.000  C 
  C94      1.0000 0.68403  0.67490  0.96727  Biso   1.000  C 
  C95      1.0000 0.65530  0.67460  0.90776  Biso   1.000  C 
  C96      1.0000 0.68640  0.63100  0.87999  Biso   1.000  C 
  H51      1.0000 0.66590  0.62960  0.83990  Biso   1.000  H 
  N37      1.0000 0.74452  0.59050  0.90771  Biso   1.000  N 
  Ag8      1.0000 0.79482  0.50096  0.86769  Biso   1.000  Ag
  N38      1.0000 0.89169  0.43540  0.92207  Biso   1.000  N 
  C97      1.0000 0.92314  0.40050  0.89264  Biso   1.000  C 
  C98      1.0000 0.98206  0.35820  0.91884  Biso   1.000  C 
  H52      1.0000 0.00150  0.33490  0.89670  Biso   1.000  H 
  C99      1.0000 0.01259  0.35010  0.97803  Biso   1.000  C 
  C100     1.0000 0.98160  0.38720  0.00948  Biso   1.000  C 
  C101     1.0000 0.92210  0.42840  0.97970  Biso   1.000  C 
  H53      1.0000 0.90190  0.45290  0.00090  Biso   1.000  H 
  H54      1.0000 0.00070  0.38420  0.04950  Biso   1.000  H 
  H55      1.0000 0.90380  0.40560  0.85270  Biso   1.000  H 
  N39      1.0000 0.72110  0.50020  0.77175  Biso   1.000  N 
  C102     1.0000 0.74170  0.54370  0.73760  Biso   1.000  C 
  H56      1.0000 0.77750  0.57930  0.75490  Biso   1.000  H 
  C103     1.0000 0.71210  0.53790  0.67840  Biso   1.000  C 
  H57      1.0000 0.72840  0.56830  0.65660  Biso   1.000  H 
  C104     1.0000 0.65821  0.48670  0.65163  Biso   1.000  C 
  C105     1.0000 0.62806  0.47630  0.58826  Biso   1.000  C 
  N40      1.0000 0.57492  0.42760  0.56312  Biso   1.000  N 
  C106     1.0000 0.55010  0.42270  0.50587  Biso   1.000  C 
  C107     1.0000 0.48914  0.37200  0.47483  Biso   1.000  C 
  C108     1.0000 0.46090  0.36160  0.41588  Biso   1.000  C 
  H58      1.0000 0.48100  0.38510  0.39420  Biso   1.000  H 
  C109     1.0000 0.40320  0.31670  0.38908  Biso   1.000  C 
  H59      1.0000 0.38510  0.31060  0.34920  Biso   1.000  H 
  N41      1.0000 0.37141  0.28090  0.41769  Biso   1.000  N 
  C110     1.0000 0.39900  0.29070  0.47471  Biso   1.000  C 
  H60      1.0000 0.37760  0.26690  0.49520  Biso   1.000  H 
  C111     1.0000 0.45710  0.33390  0.50536  Biso   1.000  C 
  H61      1.0000 0.47470  0.33780  0.54530  Biso   1.000  H 
  N42      1.0000 0.57457  0.46080  0.47277  Biso   1.000  N 
  C112     1.0000 0.62825  0.50720  0.50256  Biso   1.000  C 
  C113     1.0000 0.65995  0.55260  0.47042  Biso   1.000  C 
  C114     1.0000 0.72330  0.58630  0.49984  Biso   1.000  C 
  H62      1.0000 0.74610  0.58170  0.53970  Biso   1.000  H 
  C115     1.0000 0.75200  0.62640  0.46950  Biso   1.000  C 
  N43      1.0000 0.72223  0.63540  0.41198  Biso   1.000  N 
  C116     1.0000 0.66070  0.60480  0.38433  Biso   1.000  C 
  H63      1.0000 0.63830  0.61270  0.34470  Biso   1.000  H 
  C117     1.0000 0.62800  0.56180  0.41127  Biso   1.000  C 
  H64      1.0000 0.58560  0.53980  0.39000  Biso   1.000  H 
  H65      1.0000 0.79450  0.64870  0.48980  Biso   1.000  H 
  N44      1.0000 0.65590  0.51840  0.55942  Biso   1.000  N 
  C118     1.0000 0.63370  0.44500  0.68550  Biso   1.000  C 
  C119     1.0000 0.66680  0.45350  0.74420  Biso   1.000  C 
  H66      1.0000 0.65040  0.42480  0.76660  Biso   1.000  H 
  H67      1.0000 0.59590  0.41210  0.66890  Biso   1.000  H 
  C120     1.0000 0.77190  0.59260  0.96567  Biso   1.000  C 
  H68      1.0000 0.81210  0.56510  0.98590  Biso   1.000  H 
  C121     1.0000 0.74355  0.63350  0.99678  Biso   1.000  C 
  H69      1.0000 0.76420  0.63320  0.03690  Biso   1.000  H 
  H70      1.0000 0.61590  0.70310  0.88680  Biso   1.000  H 
  N45      1.0000 0.59757  0.76050  0.97338  Biso   1.000  N 
  C122     1.0000 0.69040  0.74260  0.15193  Biso   1.000  C 
  C123     1.0000 0.65650  0.76830  0.18410  Biso   1.000  C 
  H71      1.0000 0.61430  0.79230  0.16620  Biso   1.000  H 
  C124     1.0000 0.68670  0.75730  0.24280  Biso   1.000  C 
  H72      1.0000 0.66370  0.77480  0.26380  Biso   1.000  H 
  N46      1.0000 0.74695  0.72320  0.27181  Biso   1.000  N 
  C125     1.0000 0.77960  0.69830  0.24060  Biso   1.000  C 
  C126     1.0000 0.75290  0.70720  0.18124  Biso   1.000  C 
  H73      1.0000 0.77690  0.68940  0.16120  Biso   1.000  H 
  H74      1.0000 0.82160  0.67430  0.25970  Biso   1.000  H 
  C127     1.0000 0.27190  0.09260  0.96567  Biso   1.000  C 
  H75      1.0000 0.31210  0.06510  0.98590  Biso   1.000  H 
  C128     1.0000 0.24355  0.13350  0.99678  Biso   1.000  C 
  H76      1.0000 0.26420  0.13320  0.03690  Biso   1.000  H 
  H77      1.0000 0.11590  0.20310  0.88680  Biso   1.000  H 
  H78      1.0000 0.32160  0.17430  0.25970  Biso   1.000  H 
  N47      1.0000 0.39169  0.06460  0.42207  Biso   1.000  N 
  C129     1.0000 0.42314  0.09950  0.39264  Biso   1.000  C 
  H79      1.0000 0.40380  0.09440  0.35270  Biso   1.000  H 
  C130     1.0000 0.48206  0.14180  0.41884  Biso   1.000  C 
  H80      1.0000 0.50150  0.16510  0.39670  Biso   1.000  H 
  C131     1.0000 0.51259  0.14990  0.47803  Biso   1.000  C 
  C132     1.0000 0.48160  0.11280  0.50948  Biso   1.000  C 
  C133     1.0000 0.42210  0.07160  0.47970  Biso   1.000  C 
  H81      1.0000 0.40190  0.04710  0.50090  Biso   1.000  H 
  H82      1.0000 0.50070  0.11580  0.54950  Biso   1.000  H 
  C134     1.0000 0.24170  0.95630  0.23760  Biso   1.000  C 
  H83      1.0000 0.27750  0.92070  0.25490  Biso   1.000  H 
  C135     1.0000 0.21210  0.96210  0.17840  Biso   1.000  C 
  H84      1.0000 0.22840  0.93170  0.15660  Biso   1.000  H 
  H85      1.0000 0.24610  0.91830  0.03970  Biso   1.000  H 
  C136     1.0000 0.39900  0.70930  0.97471  Biso   1.000  C 
  H86      1.0000 0.37760  0.73310  0.99520  Biso   1.000  H 
  C137     1.0000 0.45710  0.66610  0.00536  Biso   1.000  C 
  H87      1.0000 0.47470  0.66220  0.04530  Biso   1.000  H 
  H88      1.0000 0.38510  0.68940  0.84920  Biso   1.000  H 
  C138     1.0000 0.65821  0.51330  0.15163  Biso   1.000  C 
  C139     1.0000 0.71210  0.46210  0.17840  Biso   1.000  C 
  H89      1.0000 0.72840  0.43170  0.15660  Biso   1.000  H 
  C140     1.0000 0.74170  0.45630  0.23760  Biso   1.000  C 
  H90      1.0000 0.77750  0.42070  0.25490  Biso   1.000  H 
  N48      1.0000 0.72110  0.49980  0.27175  Biso   1.000  N 
  C141     1.0000 0.66680  0.54650  0.24420  Biso   1.000  C 
  H91      1.0000 0.65040  0.57520  0.26660  Biso   1.000  H 
  C142     1.0000 0.63370  0.55500  0.18550  Biso   1.000  C 
  H92      1.0000 0.59590  0.58790  0.16890  Biso   1.000  H 
  H93      1.0000 0.74610  0.41830  0.03970  Biso   1.000  H 
  C143     1.0000 0.77960  0.30170  0.74060  Biso   1.000  C 
  H94      1.0000 0.82160  0.32570  0.75970  Biso   1.000  H 
  C144     1.0000 0.75290  0.29280  0.68124  Biso   1.000  C 
  H95      1.0000 0.77690  0.31060  0.66120  Biso   1.000  H 
  H96      1.0000 0.76420  0.36680  0.53690  Biso   1.000  H 
