data_image0
_cell_length_a       22.0248
_cell_length_b       16.4933
_cell_length_c       25.6766
_cell_angle_alpha    90
_cell_angle_beta     115.385
_cell_angle_gamma    90

_symmetry_space_group_name_H-M    "P 1"
_symmetry_int_tables_number       1

loop_
  _symmetry_equiv_pos_as_xyz
  'x, y, z'

loop_
  _atom_site_label
  _atom_site_occupancy
  _atom_site_fract_x
  _atom_site_fract_y
  _atom_site_fract_z
  _atom_site_thermal_displace_type
  _atom_site_B_iso_or_equiv
  _atom_site_type_symbol
  Ag1      1.0000 0.27396  0.70871  0.86825  Biso   1.000  Ag
  Ag2      1.0000 0.29472  0.49943  0.86770  Biso   1.000  Ag
  N1       1.0000 0.22120  0.49980  0.77180  Biso   1.000  N 
  C1       1.0000 0.24170  0.45610  0.73765  Biso   1.000  C 
  H1       1.0000 0.27750  0.42050  0.75510  Biso   1.000  H 
  C2       1.0000 0.21230  0.46160  0.67844  Biso   1.000  C 
  H2       1.0000 0.22850  0.43110  0.65670  Biso   1.000  H 
  C3       1.0000 0.15826  0.51340  0.65177  Biso   1.000  C 
  C4       1.0000 0.13350  0.55550  0.68542  Biso   1.000  C 
  H3       1.0000 0.09570  0.58830  0.66880  Biso   1.000  H 
  C5       1.0000 0.16720  0.54670  0.74440  Biso   1.000  C 
  H4       1.0000 0.15110  0.57580  0.76690  Biso   1.000  H 
  C6       1.0000 0.12797  0.52330  0.58817  Biso   1.000  C 
  N2       1.0000 0.15627  0.48150  0.55984  Biso   1.000  N 
  C7       1.0000 0.12828  0.49280  0.50273  Biso   1.000  C 
  C8       1.0000 0.16035  0.44760  0.47060  Biso   1.000  C 
  C9       1.0000 0.12799  0.43780  0.41131  Biso   1.000  C 
  C10      1.0000 0.16105  0.39530  0.38475  Biso   1.000  C 
  H5       1.0000 0.13890  0.38790  0.34510  Biso   1.000  H 
  N3       1.0000 0.22237  0.36440  0.41218  Biso   1.000  N 
  Ag3      1.0000 0.27396  0.29129  0.36825  Biso   1.000  Ag
  N4       1.0000 0.24701  0.27670  0.27197  Biso   1.000  N 
  C11      1.0000 0.27980  0.30140  0.24071  Biso   1.000  C 
  C12      1.0000 0.25340  0.29260  0.18172  Biso   1.000  C 
  H6       1.0000 0.27750  0.31020  0.16170  Biso   1.000  H 
  C13      1.0000 0.19074  0.25730  0.15224  Biso   1.000  C 
  C14      1.0000 0.15874  0.24760  0.08861  Biso   1.000  C 
  N5       1.0000 0.10405  0.20070  0.06481  Biso   1.000  N 
  C15      1.0000 0.07522  0.19900  0.00741  Biso   1.000  C 
  N6       1.0000 0.09751  0.23980  0.97349  Biso   1.000  N 
  C16      1.0000 0.15417  0.28090  0.00159  Biso   1.000  C 
  N7       1.0000 0.18699  0.28740  0.05933  Biso   1.000  N 
  C17      1.0000 0.18396  0.32500  0.96714  Biso   1.000  C 
  C18      1.0000 0.15560  0.32540  0.90785  Biso   1.000  C 
  H7       1.0000 0.11620  0.29690  0.88680  Biso   1.000  H 
  C19      1.0000 0.18670  0.36890  0.88010  Biso   1.000  C 
  H8       1.0000 0.16650  0.37010  0.84000  Biso   1.000  H 
  N8       1.0000 0.24471  0.40980  0.90804  Biso   1.000  N 
  C20      1.0000 0.27208  0.40770  0.96552  Biso   1.000  C 
  H9       1.0000 0.31230  0.43520  0.98570  Biso   1.000  H 
  C21      1.0000 0.24352  0.36680  0.99657  Biso   1.000  C 
  H10      1.0000 0.26410  0.36730  0.03670  Biso   1.000  H 
  C22      1.0000 0.01252  0.15010  0.97817  Biso   1.000  C 
  C23      1.0000 0.98185  0.11310  0.00967  Biso   1.000  C 
  C24      1.0000 0.92210  0.07170  0.97993  Biso   1.000  C 
  N9       1.0000 0.89173  0.06480  0.92212  Biso   1.000  N 
  Ag4      1.0000 0.79472  0.99943  0.86770  Biso   1.000  Ag
  N10      1.0000 0.72120  0.99980  0.77180  Biso   1.000  N 
  C25      1.0000 0.74170  0.95610  0.73765  Biso   1.000  C 
  H11      1.0000 0.77750  0.92050  0.75510  Biso   1.000  H 
  C26      1.0000 0.71230  0.96160  0.67844  Biso   1.000  C 
  H12      1.0000 0.72850  0.93110  0.65670  Biso   1.000  H 
  C27      1.0000 0.65826  0.01340  0.65177  Biso   1.000  C 
  C28      1.0000 0.63350  0.05550  0.68542  Biso   1.000  C 
  H13      1.0000 0.59570  0.08830  0.66880  Biso   1.000  H 
  C29      1.0000 0.66720  0.04670  0.74440  Biso   1.000  C 
  H14      1.0000 0.65110  0.07580  0.76690  Biso   1.000  H 
  C30      1.0000 0.62797  0.02330  0.58817  Biso   1.000  C 
  N11      1.0000 0.57488  0.07250  0.56315  Biso   1.000  N 
  C31      1.0000 0.54988  0.07730  0.50579  Biso   1.000  C 
  C32      1.0000 0.48923  0.12800  0.47531  Biso   1.000  C 
  C33      1.0000 0.46102  0.13880  0.41594  Biso   1.000  C 
  H15      1.0000 0.48130  0.11580  0.39430  Biso   1.000  H 
  C34      1.0000 0.40318  0.18360  0.38927  Biso   1.000  C 
  H16      1.0000 0.38510  0.18950  0.34940  Biso   1.000  H 
  N12      1.0000 0.37125  0.21921  0.41762  Biso   1.000  N 
  C35      1.0000 0.39890  0.20940  0.47492  Biso   1.000  C 
  H17      1.0000 0.37760  0.23340  0.49540  Biso   1.000  H 
  C36      1.0000 0.45707  0.16590  0.50551  Biso   1.000  C 
  H18      1.0000 0.47460  0.16190  0.54540  Biso   1.000  H 
  N13      1.0000 0.57468  0.03900  0.47300  Biso   1.000  N 
  C37      1.0000 0.62828  0.99280  0.50273  Biso   1.000  C 
  N14      1.0000 0.65627  0.98150  0.55984  Biso   1.000  N 
  C38      1.0000 0.66035  0.94760  0.47060  Biso   1.000  C 
  C39      1.0000 0.62799  0.93780  0.41131  Biso   1.000  C 
  C40      1.0000 0.66105  0.89530  0.38475  Biso   1.000  C 
  H19      1.0000 0.63890  0.88790  0.34510  Biso   1.000  H 
  N15      1.0000 0.72237  0.86440  0.41218  Biso   1.000  N 
  Ag5      1.0000 0.77396  0.79129  0.36825  Biso   1.000  Ag
  N16      1.0000 0.74701  0.77670  0.27197  Biso   1.000  N 
  C41      1.0000 0.77980  0.80140  0.24071  Biso   1.000  C 
  C42      1.0000 0.75340  0.79260  0.18172  Biso   1.000  C 
  H20      1.0000 0.77750  0.81020  0.16170  Biso   1.000  H 
  C43      1.0000 0.69074  0.75730  0.15224  Biso   1.000  C 
  C44      1.0000 0.65660  0.73190  0.18412  Biso   1.000  C 
  H21      1.0000 0.61440  0.70790  0.16610  Biso   1.000  H 
  C45      1.0000 0.68680  0.74290  0.24319  Biso   1.000  C 
  H22      1.0000 0.66370  0.72580  0.26410  Biso   1.000  H 
  C46      1.0000 0.65874  0.74760  0.08861  Biso   1.000  C 
  N17      1.0000 0.60405  0.70070  0.06481  Biso   1.000  N 
  C47      1.0000 0.57522  0.69900  0.00741  Biso   1.000  C 
  C48      1.0000 0.51252  0.65010  0.97817  Biso   1.000  C 
  C49      1.0000 0.48185  0.61310  0.00967  Biso   1.000  C 
  H23      1.0000 0.50110  0.61610  0.04970  Biso   1.000  H 
  C50      1.0000 0.42210  0.57170  0.97993  Biso   1.000  C 
  N18      1.0000 0.39173  0.56480  0.92212  Biso   1.000  N 
  C51      1.0000 0.42269  0.60000  0.89269  Biso   1.000  C 
  H24      1.0000 0.40300  0.59570  0.85270  Biso   1.000  H 
  C52      1.0000 0.48227  0.64220  0.91911  Biso   1.000  C 
  H25      1.0000 0.50200  0.66520  0.89700  Biso   1.000  H 
  H26      1.0000 0.40190  0.54720  0.00110  Biso   1.000  H 
  N19      1.0000 0.59751  0.73980  0.97349  Biso   1.000  N 
  C53      1.0000 0.65417  0.78090  0.00159  Biso   1.000  C 
  N20      1.0000 0.68699  0.78740  0.05933  Biso   1.000  N 
  C54      1.0000 0.68396  0.82500  0.96714  Biso   1.000  C 
  C55      1.0000 0.65560  0.82540  0.90785  Biso   1.000  C 
  H27      1.0000 0.61620  0.79690  0.88680  Biso   1.000  H 
  C56      1.0000 0.68670  0.86890  0.88010  Biso   1.000  C 
  H28      1.0000 0.66650  0.87010  0.84000  Biso   1.000  H 
  N21      1.0000 0.74471  0.90980  0.90804  Biso   1.000  N 
  C57      1.0000 0.77208  0.90770  0.96552  Biso   1.000  C 
  H29      1.0000 0.81230  0.93520  0.98570  Biso   1.000  H 
  C58      1.0000 0.74352  0.86680  0.99657  Biso   1.000  C 
  H30      1.0000 0.76410  0.86730  0.03670  Biso   1.000  H 
  H31      1.0000 0.82190  0.82540  0.25980  Biso   1.000  H 
  N22      1.0000 0.87125  0.71921  0.41762  Biso   1.000  N 
  C59      1.0000 0.90318  0.68360  0.38927  Biso   1.000  C 
  H32      1.0000 0.88510  0.68950  0.34940  Biso   1.000  H 
  C60      1.0000 0.96102  0.63880  0.41594  Biso   1.000  C 
  H33      1.0000 0.98130  0.61580  0.39430  Biso   1.000  H 
  C61      1.0000 0.98923  0.62800  0.47531  Biso   1.000  C 
  C62      1.0000 0.95707  0.66590  0.50551  Biso   1.000  C 
  H34      1.0000 0.97460  0.66190  0.54540  Biso   1.000  H 
  C63      1.0000 0.89890  0.70940  0.47492  Biso   1.000  C 
  H35      1.0000 0.87760  0.73340  0.49540  Biso   1.000  H 
  C64      1.0000 0.04988  0.57730  0.50579  Biso   1.000  C 
  N23      1.0000 0.07468  0.53900  0.47300  Biso   1.000  N 
  N24      1.0000 0.07488  0.57250  0.56315  Biso   1.000  N 
  Ag6      1.0000 0.79472  0.00057  0.36770  Biso   1.000  Ag
  N25      1.0000 0.72120  0.00020  0.27180  Biso   1.000  N 
  C65      1.0000 0.66720  0.95330  0.24440  Biso   1.000  C 
  H36      1.0000 0.65110  0.92420  0.26690  Biso   1.000  H 
  C66      1.0000 0.63350  0.94450  0.18542  Biso   1.000  C 
  H37      1.0000 0.59570  0.91170  0.16880  Biso   1.000  H 
  C67      1.0000 0.65826  0.98660  0.15177  Biso   1.000  C 
  C68      1.0000 0.62797  0.97670  0.08817  Biso   1.000  C 
  N26      1.0000 0.57488  0.92750  0.06315  Biso   1.000  N 
  C69      1.0000 0.54988  0.92270  0.00579  Biso   1.000  C 
  N27      1.0000 0.57468  0.96100  0.97300  Biso   1.000  N 
  C70      1.0000 0.62828  0.00720  0.00273  Biso   1.000  C 
  N28      1.0000 0.65627  0.01850  0.05984  Biso   1.000  N 
  C71      1.0000 0.66035  0.05240  0.97060  Biso   1.000  C 
  C72      1.0000 0.62799  0.06220  0.91131  Biso   1.000  C 
  H38      1.0000 0.58530  0.04080  0.89000  Biso   1.000  H 
  C73      1.0000 0.66105  0.10470  0.88475  Biso   1.000  C 
  H39      1.0000 0.63890  0.11210  0.84510  Biso   1.000  H 
  N29      1.0000 0.72237  0.13560  0.91218  Biso   1.000  N 
  Ag7      1.0000 0.77396  0.20871  0.86825  Biso   1.000  Ag
  N30      1.0000 0.74701  0.22330  0.77197  Biso   1.000  N 
  C74      1.0000 0.77980  0.19860  0.74071  Biso   1.000  C 
  H40      1.0000 0.82190  0.17460  0.75980  Biso   1.000  H 
  C75      1.0000 0.75340  0.20740  0.68172  Biso   1.000  C 
  H41      1.0000 0.77750  0.18980  0.66170  Biso   1.000  H 
  C76      1.0000 0.69074  0.24270  0.65224  Biso   1.000  C 
  C77      1.0000 0.65874  0.25240  0.58861  Biso   1.000  C 
  N31      1.0000 0.68699  0.21260  0.55933  Biso   1.000  N 
  C78      1.0000 0.65417  0.21910  0.50159  Biso   1.000  C 
  C79      1.0000 0.68396  0.17500  0.46714  Biso   1.000  C 
  C80      1.0000 0.65560  0.17460  0.40785  Biso   1.000  C 
  C81      1.0000 0.68670  0.13110  0.38010  Biso   1.000  C 
  H42      1.0000 0.66650  0.12990  0.34000  Biso   1.000  H 
  N32      1.0000 0.74471  0.09020  0.40804  Biso   1.000  N 
  C82      1.0000 0.77208  0.09230  0.46552  Biso   1.000  C 
  H43      1.0000 0.81230  0.06480  0.48570  Biso   1.000  H 
  C83      1.0000 0.74352  0.13320  0.49657  Biso   1.000  C 
  H44      1.0000 0.76410  0.13270  0.53670  Biso   1.000  H 
  H45      1.0000 0.61620  0.20310  0.38680  Biso   1.000  H 
  N33      1.0000 0.59751  0.26020  0.47349  Biso   1.000  N 
  C84      1.0000 0.57522  0.30100  0.50741  Biso   1.000  C 
  N34      1.0000 0.60405  0.29930  0.56481  Biso   1.000  N 
  C85      1.0000 0.51252  0.34990  0.47817  Biso   1.000  C 
  C86      1.0000 0.48185  0.38690  0.50967  Biso   1.000  C 
  C87      1.0000 0.42210  0.42830  0.47993  Biso   1.000  C 
  H46      1.0000 0.40190  0.45280  0.50110  Biso   1.000  H 
  N35      1.0000 0.39173  0.43520  0.42212  Biso   1.000  N 
  Ag8      1.0000 0.29472  0.50057  0.36770  Biso   1.000  Ag
  N36      1.0000 0.22120  0.50020  0.27180  Biso   1.000  N 
  C88      1.0000 0.24170  0.54390  0.23765  Biso   1.000  C 
  H47      1.0000 0.27750  0.57950  0.25510  Biso   1.000  H 
  C89      1.0000 0.21230  0.53840  0.17844  Biso   1.000  C 
  H48      1.0000 0.22850  0.56890  0.15670  Biso   1.000  H 
  C90      1.0000 0.15826  0.48660  0.15177  Biso   1.000  C 
  C91      1.0000 0.13350  0.44450  0.18542  Biso   1.000  C 
  H49      1.0000 0.09570  0.41170  0.16880  Biso   1.000  H 
  C92      1.0000 0.16720  0.45330  0.24440  Biso   1.000  C 
  H50      1.0000 0.15110  0.42420  0.26690  Biso   1.000  H 
  C93      1.0000 0.12797  0.47670  0.08817  Biso   1.000  C 
  N37      1.0000 0.07488  0.42750  0.06315  Biso   1.000  N 
  C94      1.0000 0.04988  0.42270  0.00579  Biso   1.000  C 
  N38      1.0000 0.07468  0.46100  0.97300  Biso   1.000  N 
  C95      1.0000 0.12828  0.50720  0.00273  Biso   1.000  C 
  N39      1.0000 0.15627  0.51850  0.05984  Biso   1.000  N 
  C96      1.0000 0.16035  0.55240  0.97060  Biso   1.000  C 
  C97      1.0000 0.12799  0.56220  0.91131  Biso   1.000  C 
  C98      1.0000 0.16105  0.60470  0.88475  Biso   1.000  C 
  H51      1.0000 0.13890  0.61210  0.84510  Biso   1.000  H 
  N40      1.0000 0.22237  0.63560  0.91218  Biso   1.000  N 
  C99      1.0000 0.25200  0.62690  0.96949  Biso   1.000  C 
  H52      1.0000 0.29440  0.64940  0.98970  Biso   1.000  H 
  C100     1.0000 0.22338  0.58670  0.00010  Biso   1.000  C 
  H53      1.0000 0.24590  0.58250  0.04000  Biso   1.000  H 
  H54      1.0000 0.08530  0.54080  0.89000  Biso   1.000  H 
  C101     1.0000 0.98923  0.37200  0.97531  Biso   1.000  C 
  C102     1.0000 0.96102  0.36120  0.91594  Biso   1.000  C 
  H55      1.0000 0.98130  0.38420  0.89430  Biso   1.000  H 
  C103     1.0000 0.90318  0.31640  0.88927  Biso   1.000  C 
  H56      1.0000 0.88510  0.31050  0.84940  Biso   1.000  H 
  N41      1.0000 0.87125  0.28079  0.91762  Biso   1.000  N 
  C104     1.0000 0.89890  0.29060  0.97492  Biso   1.000  C 
  H57      1.0000 0.87760  0.26660  0.99540  Biso   1.000  H 
  C105     1.0000 0.95707  0.33410  0.00551  Biso   1.000  C 
  H58      1.0000 0.97460  0.33810  0.04540  Biso   1.000  H 
  N42      1.0000 0.24471  0.59020  0.40804  Biso   1.000  N 
  C106     1.0000 0.27208  0.59230  0.46552  Biso   1.000  C 
  H59      1.0000 0.31230  0.56480  0.48570  Biso   1.000  H 
  C107     1.0000 0.24352  0.63320  0.49657  Biso   1.000  C 
  H60      1.0000 0.26410  0.63270  0.53670  Biso   1.000  H 
  C108     1.0000 0.18396  0.67500  0.46714  Biso   1.000  C 
  C109     1.0000 0.15560  0.67460  0.40785  Biso   1.000  C 
  C110     1.0000 0.18670  0.63110  0.38010  Biso   1.000  C 
  H61      1.0000 0.16650  0.62990  0.34000  Biso   1.000  H 
  H62      1.0000 0.11620  0.70310  0.38680  Biso   1.000  H 
  C111     1.0000 0.15417  0.71910  0.50159  Biso   1.000  C 
  N43      1.0000 0.18699  0.71260  0.55933  Biso   1.000  N 
  C112     1.0000 0.15874  0.75240  0.58861  Biso   1.000  C 
  N44      1.0000 0.10405  0.79930  0.56481  Biso   1.000  N 
  C113     1.0000 0.07522  0.80100  0.50741  Biso   1.000  C 
  N45      1.0000 0.09751  0.76020  0.47349  Biso   1.000  N 
  C114     1.0000 0.01252  0.84990  0.47817  Biso   1.000  C 
  C115     1.0000 0.98227  0.85780  0.41911  Biso   1.000  C 
  C116     1.0000 0.92269  0.90000  0.39269  Biso   1.000  C 
  H63      1.0000 0.90300  0.90430  0.35270  Biso   1.000  H 
  N46      1.0000 0.89173  0.93520  0.42212  Biso   1.000  N 
  C117     1.0000 0.92210  0.92830  0.47993  Biso   1.000  C 
  H64      1.0000 0.90190  0.95280  0.50110  Biso   1.000  H 
  C118     1.0000 0.98185  0.88690  0.50967  Biso   1.000  C 
  H65      1.0000 0.00110  0.88390  0.54970  Biso   1.000  H 
  H66      1.0000 0.00200  0.83480  0.39700  Biso   1.000  H 
  C119     1.0000 0.19074  0.74270  0.65224  Biso   1.000  C 
  C120     1.0000 0.15660  0.76810  0.68412  Biso   1.000  C 
  H67      1.0000 0.11440  0.79210  0.66610  Biso   1.000  H 
  C121     1.0000 0.18680  0.75710  0.74319  Biso   1.000  C 
  H68      1.0000 0.16370  0.77420  0.76410  Biso   1.000  H 
  N47      1.0000 0.24701  0.72330  0.77197  Biso   1.000  N 
  C122     1.0000 0.27980  0.69860  0.74071  Biso   1.000  C 
  C123     1.0000 0.25340  0.70740  0.68172  Biso   1.000  C 
  H69      1.0000 0.27750  0.68980  0.66170  Biso   1.000  H 
  H70      1.0000 0.32190  0.67460  0.75980  Biso   1.000  H 
  C124     1.0000 0.42269  0.40000  0.39269  Biso   1.000  C 
  H71      1.0000 0.40300  0.40430  0.35270  Biso   1.000  H 
  C125     1.0000 0.48227  0.35780  0.41911  Biso   1.000  C 
  H72      1.0000 0.50200  0.33480  0.39700  Biso   1.000  H 
  H73      1.0000 0.50110  0.38390  0.54970  Biso   1.000  H 
  C126     1.0000 0.65660  0.26810  0.68412  Biso   1.000  C 
  H74      1.0000 0.61440  0.29210  0.66610  Biso   1.000  H 
  C127     1.0000 0.68680  0.25710  0.74319  Biso   1.000  C 
  H75      1.0000 0.66370  0.27420  0.76410  Biso   1.000  H 
  C128     1.0000 0.75200  0.12690  0.96949  Biso   1.000  C 
  H76      1.0000 0.79440  0.14940  0.98970  Biso   1.000  H 
  C129     1.0000 0.72338  0.08670  0.00010  Biso   1.000  C 
  H77      1.0000 0.74590  0.08250  0.04000  Biso   1.000  H 
  C130     1.0000 0.48923  0.87200  0.97531  Biso   1.000  C 
  C131     1.0000 0.46102  0.86120  0.91594  Biso   1.000  C 
  H78      1.0000 0.48130  0.88420  0.89430  Biso   1.000  H 
  C132     1.0000 0.40318  0.81640  0.88927  Biso   1.000  C 
  N48      1.0000 0.37125  0.78079  0.91762  Biso   1.000  N 
  C133     1.0000 0.39890  0.79060  0.97492  Biso   1.000  C 
  H79      1.0000 0.37760  0.76660  0.99540  Biso   1.000  H 
  C134     1.0000 0.45707  0.83410  0.00551  Biso   1.000  C 
  H80      1.0000 0.47460  0.83810  0.04540  Biso   1.000  H 
  H81      1.0000 0.38510  0.81050  0.84940  Biso   1.000  H 
  C135     1.0000 0.71230  0.03840  0.17844  Biso   1.000  C 
  H82      1.0000 0.72850  0.06890  0.15670  Biso   1.000  H 
  C136     1.0000 0.74170  0.04390  0.23765  Biso   1.000  C 
  H83      1.0000 0.77750  0.07950  0.25510  Biso   1.000  H 
  C137     1.0000 0.75200  0.87310  0.46949  Biso   1.000  C 
  H84      1.0000 0.79440  0.85060  0.48970  Biso   1.000  H 
  C138     1.0000 0.72338  0.91330  0.50010  Biso   1.000  C 
  H85      1.0000 0.74590  0.91750  0.54000  Biso   1.000  H 
  H86      1.0000 0.58530  0.95920  0.39000  Biso   1.000  H 
  C139     1.0000 0.92269  0.10000  0.89269  Biso   1.000  C 
  H87      1.0000 0.90300  0.09570  0.85270  Biso   1.000  H 
  C140     1.0000 0.98227  0.14220  0.91911  Biso   1.000  C 
  H88      1.0000 0.00200  0.16520  0.89700  Biso   1.000  H 
  H89      1.0000 0.90190  0.04720  0.00110  Biso   1.000  H 
  H90      1.0000 0.00110  0.11610  0.04970  Biso   1.000  H 
  C141     1.0000 0.15660  0.23190  0.18412  Biso   1.000  C 
  H91      1.0000 0.11440  0.20790  0.16610  Biso   1.000  H 
  C142     1.0000 0.18680  0.24290  0.24319  Biso   1.000  C 
  H92      1.0000 0.16370  0.22580  0.26410  Biso   1.000  H 
  H93      1.0000 0.32190  0.32540  0.25980  Biso   1.000  H 
  C143     1.0000 0.25200  0.37310  0.46949  Biso   1.000  C 
  H94      1.0000 0.29440  0.35060  0.48970  Biso   1.000  H 
  C144     1.0000 0.22338  0.41330  0.50010  Biso   1.000  C 
  H95      1.0000 0.24590  0.41750  0.54000  Biso   1.000  H 
  H96      1.0000 0.08530  0.45920  0.39000  Biso   1.000  H 
