data_image0
_cell_length_a       12.0529
_cell_length_b       12.0529
_cell_length_c       20.4959
_cell_angle_alpha    90
_cell_angle_beta     90
_cell_angle_gamma    90

_symmetry_space_group_name_H-M    "P 1"
_symmetry_int_tables_number       1

loop_
  _symmetry_equiv_pos_as_xyz
  'x, y, z'

loop_
  _atom_site_label
  _atom_site_occupancy
  _atom_site_fract_x
  _atom_site_fract_y
  _atom_site_fract_z
  _atom_site_thermal_displace_type
  _atom_site_B_iso_or_equiv
  _atom_site_type_symbol
  Yb1      1.0000 0.50000  0.50000  0.75000  Biso   1.000  Yb
  O1       1.0000 0.42002  0.35510  0.69225  Biso   1.000  O 
  C1       1.0000 0.33960  0.30340  0.71545  Biso   1.000  C 
  C2       1.0000 0.30340  0.33960  0.78455  Biso   1.000  C 
  O2       1.0000 0.35510  0.42002  0.80775  Biso   1.000  O 
  C3       1.0000 0.21740  0.28260  0.81510  Biso   1.000  C 
  C4       1.0000 0.16040  0.19660  0.78455  Biso   1.000  C 
  C5       1.0000 0.19660  0.16040  0.71545  Biso   1.000  C 
  Yb2      1.0000 0.00000  0.00000  0.75000  Biso   1.000  Yb
  O3       1.0000 0.14490  0.07998  0.69225  Biso   1.000  O 
  O4       1.0000 0.07998  0.14490  0.80775  Biso   1.000  O 
  O5       1.0000 0.92002  0.85510  0.80775  Biso   1.000  O 
  C6       1.0000 0.83960  0.80340  0.78455  Biso   1.000  C 
  C7       1.0000 0.80340  0.83960  0.71545  Biso   1.000  C 
  O6       1.0000 0.85510  0.92002  0.69225  Biso   1.000  O 
  C8       1.0000 0.71740  0.78260  0.68490  Biso   1.000  C 
  C9       1.0000 0.66040  0.69660  0.71545  Biso   1.000  C 
  C10      1.0000 0.69660  0.66040  0.78455  Biso   1.000  C 
  O7       1.0000 0.64490  0.57998  0.80775  Biso   1.000  O 
  C11      1.0000 0.78260  0.71740  0.81510  Biso   1.000  C 
  Cl1      1.0000 0.82239  0.67761  0.89280  Biso   1.000  Cl
  O8       1.0000 0.57998  0.64490  0.69225  Biso   1.000  O 
  Cl2      1.0000 0.67761  0.82239  0.60720  Biso   1.000  Cl
  O9       1.0000 0.85510  0.07998  0.80775  Biso   1.000  O 
  C12      1.0000 0.80340  0.16040  0.78455  Biso   1.000  C 
  C13      1.0000 0.83960  0.19660  0.71545  Biso   1.000  C 
  O10      1.0000 0.92002  0.14490  0.69225  Biso   1.000  O 
  C14      1.0000 0.78260  0.28260  0.68490  Biso   1.000  C 
  Cl3      1.0000 0.82239  0.32239  0.60720  Biso   1.000  Cl
  C15      1.0000 0.69660  0.33960  0.71545  Biso   1.000  C 
  C16      1.0000 0.66040  0.30340  0.78455  Biso   1.000  C 
  O11      1.0000 0.57998  0.35510  0.80775  Biso   1.000  O 
  C17      1.0000 0.71740  0.21740  0.81510  Biso   1.000  C 
  Cl4      1.0000 0.67761  0.17761  0.89280  Biso   1.000  Cl
  O12      1.0000 0.64490  0.42002  0.69225  Biso   1.000  O 
  O13      1.0000 0.14490  0.92002  0.80775  Biso   1.000  O 
  C18      1.0000 0.19660  0.83960  0.78455  Biso   1.000  C 
  C19      1.0000 0.16040  0.80340  0.71545  Biso   1.000  C 
  O14      1.0000 0.07998  0.85510  0.69225  Biso   1.000  O 
  C20      1.0000 0.21740  0.71740  0.68490  Biso   1.000  C 
  Cl5      1.0000 0.17761  0.67761  0.60720  Biso   1.000  Cl
  C21      1.0000 0.30340  0.66040  0.71545  Biso   1.000  C 
  C22      1.0000 0.33960  0.69660  0.78455  Biso   1.000  C 
  O15      1.0000 0.42002  0.64490  0.80775  Biso   1.000  O 
  C23      1.0000 0.28260  0.78260  0.81510  Biso   1.000  C 
  Cl6      1.0000 0.32239  0.82239  0.89280  Biso   1.000  Cl
  O16      1.0000 0.35510  0.57998  0.69225  Biso   1.000  O 
  C24      1.0000 0.28260  0.21740  0.68490  Biso   1.000  C 
  Cl7      1.0000 0.32239  0.17761  0.60720  Biso   1.000  Cl
  Cl8      1.0000 0.17761  0.32239  0.89280  Biso   1.000  Cl
