data_image0
_cell_length_a       13.8417
_cell_length_b       22.4998
_cell_length_c       21.817
_cell_angle_alpha    90
_cell_angle_beta     96.49
_cell_angle_gamma    90

_symmetry_space_group_name_H-M    "P 1"
_symmetry_int_tables_number       1

loop_
  _symmetry_equiv_pos_as_xyz
  'x, y, z'

loop_
  _atom_site_label
  _atom_site_occupancy
  _atom_site_fract_x
  _atom_site_fract_y
  _atom_site_fract_z
  _atom_site_thermal_displace_type
  _atom_site_B_iso_or_equiv
  _atom_site_type_symbol
  Eu1      1.0000 0.79513  0.35901  0.76085  Biso   1.000  Eu
  Eu2      1.0000 0.71783  0.19332  0.72070  Biso   1.000  Eu
  O1       1.0000 0.56240  0.15462  0.71240  Biso   1.000  O 
  C1       1.0000 0.53470  0.10380  0.72480  Biso   1.000  C 
  C2       1.0000 0.42980  0.08980  0.71150  Biso   1.000  C 
  C3       1.0000 0.39480  0.03400  0.72480  Biso   1.000  C 
  C4       1.0000 0.29700  0.02160  0.70660  Biso   1.000  C 
  C5       1.0000 0.23580  0.06180  0.67560  Biso   1.000  C 
  C6       1.0000 0.13070  0.04540  0.65340  Biso   1.000  C 
  H1       1.0000 0.09660  0.08010  0.63680  Biso   1.000  H 
  H2       1.0000 0.09960  0.03030  0.68730  Biso   1.000  H 
  H3       1.0000 0.12960  0.01550  0.62190  Biso   1.000  H 
  C7       1.0000 0.27150  0.11740  0.66480  Biso   1.000  C 
  H4       1.0000 0.23010  0.14590  0.64550  Biso   1.000  H 
  C8       1.0000 0.36750  0.13150  0.68200  Biso   1.000  C 
  H5       1.0000 0.39050  0.16920  0.67390  Biso   1.000  H 
  H6       1.0000 0.27270  0.98460  0.71590  Biso   1.000  H 
  H7       1.0000 0.43540  0.00570  0.74520  Biso   1.000  H 
  O2       1.0000 0.59310  0.06295  0.74689  Biso   1.000  O 
  Eu3      1.0000 0.74765  0.02284  0.75136  Biso   1.000  Eu
  O3       1.0000 0.73910  0.10219  0.66678  Biso   1.000  O 
  C9       1.0000 0.80490  0.07420  0.64060  Biso   1.000  C 
  O4       1.0000 0.84850  0.03176  0.66781  Biso   1.000  O 
  C10      1.0000 0.82600  0.09100  0.57750  Biso   1.000  C 
  C11      1.0000 0.77740  0.13650  0.54480  Biso   1.000  C 
  C12      1.0000 0.79910  0.14940  0.48580  Biso   1.000  C 
  H8       1.0000 0.76620  0.18040  0.46420  Biso   1.000  H 
  C13      1.0000 0.86710  0.11840  0.45820  Biso   1.000  C 
  C14      1.0000 0.91550  0.07410  0.49150  Biso   1.000  C 
  H9       1.0000 0.96300  0.05270  0.47410  Biso   1.000  H 
  C15      1.0000 0.89560  0.05990  0.55090  Biso   1.000  C 
  H10      1.0000 0.92950  0.02940  0.57260  Biso   1.000  H 
  C16      1.0000 0.88940  0.13280  0.39300  Biso   1.000  C 
  H11      1.0000 0.83170  0.12760  0.36470  Biso   1.000  H 
  H12      1.0000 0.91130  0.17320  0.39140  Biso   1.000  H 
  H13      1.0000 0.93930  0.10650  0.38190  Biso   1.000  H 
  H14      1.0000 0.73040  0.15830  0.56220  Biso   1.000  H 
  O5       1.0000 0.76530  0.05235  0.85869  Biso   1.000  O 
  C17      1.0000 0.78990  0.10500  0.85150  Biso   1.000  C 
  O6       1.0000 0.79080  0.12564  0.79681  Biso   1.000  O 
  C18      1.0000 0.81840  0.14260  0.90650  Biso   1.000  C 
  C19      1.0000 0.85420  0.19930  0.90090  Biso   1.000  C 
  H15      1.0000 0.86220  0.21430  0.86210  Biso   1.000  H 
  C20      1.0000 0.87820  0.23410  0.95270  Biso   1.000  C 
  H16      1.0000 0.90310  0.27210  0.94830  Biso   1.000  H 
  C21      1.0000 0.86560  0.21310  0.01040  Biso   1.000  C 
  C22      1.0000 0.83330  0.15590  0.01590  Biso   1.000  C 
  H17      1.0000 0.82790  0.14030  0.05490  Biso   1.000  H 
  C23      1.0000 0.80860  0.12110  0.96440  Biso   1.000  C 
  H18      1.0000 0.78510  0.08280  0.96900  Biso   1.000  H 
  C24      1.0000 0.88930  0.25230  0.06770  Biso   1.000  C 
  H19      1.0000 0.90120  0.22760  0.10360  Biso   1.000  H 
  H20      1.0000 0.94620  0.27560  0.06320  Biso   1.000  H 
  H21      1.0000 0.83550  0.27820  0.07210  Biso   1.000  H 
  O7       1.0000 0.91840  0.00149  0.79149  Biso   1.000  O 
  C25      1.0000 0.91840  0.94870  0.77480  Biso   1.000  C 
  O8       1.0000 0.83850  0.92431  0.75196  Biso   1.000  O 
  Eu4      1.0000 0.70487  0.85901  0.73915  Biso   1.000  Eu
  Eu5      1.0000 0.78217  0.69332  0.77930  Biso   1.000  Eu
  O9       1.0000 0.70920  0.62564  0.70319  Biso   1.000  O 
  Eu6      1.0000 0.75235  0.52284  0.74864  Biso   1.000  Eu
  C26      1.0000 0.58160  0.44870  0.72520  Biso   1.000  C 
  O10      1.0000 0.66150  0.42431  0.74804  Biso   1.000  O 
  O11      1.0000 0.58160  0.50149  0.70851  Biso   1.000  O 
  C27      1.0000 0.49150  0.41330  0.72010  Biso   1.000  C 
  C28      1.0000 0.40310  0.43940  0.69720  Biso   1.000  C 
  H22      1.0000 0.40110  0.47950  0.68690  Biso   1.000  H 
  C29      1.0000 0.31950  0.40640  0.68980  Biso   1.000  C 
  H23      1.0000 0.26150  0.42430  0.67380  Biso   1.000  H 
  C30      1.0000 0.31960  0.34660  0.70550  Biso   1.000  C 
  C31      1.0000 0.22680  0.31050  0.69460  Biso   1.000  C 
  H24      1.0000 0.17470  0.33180  0.71010  Biso   1.000  H 
  H25      1.0000 0.23580  0.27310  0.71560  Biso   1.000  H 
  H26      1.0000 0.21120  0.30360  0.65120  Biso   1.000  H 
  C32      1.0000 0.40590  0.32150  0.72930  Biso   1.000  C 
  H27      1.0000 0.40730  0.28170  0.74080  Biso   1.000  H 
  C33      1.0000 0.49000  0.35400  0.73640  Biso   1.000  C 
  H28      1.0000 0.54760  0.33570  0.75250  Biso   1.000  H 
  O12      1.0000 0.83580  0.44598  0.69730  Biso   1.000  O 
  C34      1.0000 0.90180  0.41650  0.67360  Biso   1.000  C 
  C35      1.0000 0.96590  0.44750  0.63460  Biso   1.000  C 
  C36      1.0000 0.95900  0.50770  0.62390  Biso   1.000  C 
  H29      1.0000 0.91110  0.52950  0.64050  Biso   1.000  H 
  C37      1.0000 0.02210  0.53610  0.58920  Biso   1.000  C 
  C38      1.0000 0.09320  0.50450  0.56360  Biso   1.000  C 
  C39      1.0000 0.09850  0.44420  0.57330  Biso   1.000  C 
  C40      1.0000 0.03620  0.41560  0.60790  Biso   1.000  C 
  H30      1.0000 0.04090  0.37470  0.61350  Biso   1.000  H 
  H31      1.0000 0.14550  0.42230  0.55600  Biso   1.000  H 
  C41      1.0000 0.16260  0.53600  0.52590  Biso   1.000  C 
  H32      1.0000 0.19040  0.50780  0.49990  Biso   1.000  H 
  H33      1.0000 0.12810  0.56590  0.50090  Biso   1.000  H 
  H34      1.0000 0.21350  0.55440  0.55310  Biso   1.000  H 
  H35      1.0000 0.01690  0.57690  0.58280  Biso   1.000  H 
  O13      1.0000 0.91010  0.36249  0.68460  Biso   1.000  O 
  O14      1.0000 0.83170  0.45539  0.82445  Biso   1.000  O 
  C42      1.0000 0.91290  0.43300  0.84650  Biso   1.000  C 
  C43      1.0000 0.98200  0.46850  0.88830  Biso   1.000  C 
  C44      1.0000 0.95830  0.52530  0.90760  Biso   1.000  C 
  H36      1.0000 0.89680  0.54100  0.89580  Biso   1.000  H 
  C45      1.0000 0.02650  0.55800  0.94420  Biso   1.000  C 
  H37      1.0000 0.01050  0.59590  0.95670  Biso   1.000  H 
  C46      1.0000 0.11780  0.53570  0.96260  Biso   1.000  C 
  C47      1.0000 0.14030  0.47910  0.94440  Biso   1.000  C 
  H38      1.0000 0.20140  0.46330  0.95690  Biso   1.000  H 
  C48      1.0000 0.07300  0.44590  0.90790  Biso   1.000  C 
  H39      1.0000 0.08900  0.40760  0.89630  Biso   1.000  H 
  C49      1.0000 0.19260  0.57310  0.00150  Biso   1.000  C 
  H40      1.0000 0.16000  0.60230  0.02380  Biso   1.000  H 
  H41      1.0000 0.23130  0.54790  0.03010  Biso   1.000  H 
  H42      1.0000 0.23370  0.59260  0.97520  Biso   1.000  H 
  O15      1.0000 0.93340  0.38156  0.83270  Biso   1.000  O 
  C50      1.0000 0.71010  0.60500  0.64850  Biso   1.000  C 
  C51      1.0000 0.68160  0.64260  0.59350  Biso   1.000  C 
  C52      1.0000 0.64580  0.69930  0.59910  Biso   1.000  C 
  H43      1.0000 0.63780  0.71430  0.63790  Biso   1.000  H 
  C53      1.0000 0.62180  0.73410  0.54730  Biso   1.000  C 
  C54      1.0000 0.63440  0.71310  0.48960  Biso   1.000  C 
  C55      1.0000 0.66670  0.65590  0.48410  Biso   1.000  C 
  H44      1.0000 0.67210  0.64030  0.44510  Biso   1.000  H 
  C56      1.0000 0.69140  0.62110  0.53560  Biso   1.000  C 
  H45      1.0000 0.71490  0.58280  0.53100  Biso   1.000  H 
  C57      1.0000 0.61070  0.75230  0.43230  Biso   1.000  C 
  H46      1.0000 0.55380  0.77560  0.43680  Biso   1.000  H 
  H47      1.0000 0.59880  0.72760  0.39640  Biso   1.000  H 
  H48      1.0000 0.66450  0.77820  0.42790  Biso   1.000  H 
  H49      1.0000 0.59690  0.77210  0.55170  Biso   1.000  H 
  O16      1.0000 0.73470  0.55235  0.64131  Biso   1.000  O 
  O17      1.0000 0.65150  0.53176  0.83219  Biso   1.000  O 
  C58      1.0000 0.69510  0.57420  0.85940  Biso   1.000  C 
  O18      1.0000 0.76090  0.60219  0.83322  Biso   1.000  O 
  C59      1.0000 0.67400  0.59100  0.92250  Biso   1.000  C 
  C60      1.0000 0.72260  0.63650  0.95520  Biso   1.000  C 
  H50      1.0000 0.76960  0.65830  0.93780  Biso   1.000  H 
  C61      1.0000 0.70090  0.64940  0.01420  Biso   1.000  C 
  H51      1.0000 0.73380  0.68040  0.03580  Biso   1.000  H 
  C62      1.0000 0.63290  0.61840  0.04180  Biso   1.000  C 
  C63      1.0000 0.58450  0.57410  0.00850  Biso   1.000  C 
  H52      1.0000 0.53700  0.55270  0.02590  Biso   1.000  H 
  C64      1.0000 0.60440  0.55990  0.94910  Biso   1.000  C 
  H53      1.0000 0.57050  0.52940  0.92740  Biso   1.000  H 
  C65      1.0000 0.61060  0.63280  0.10700  Biso   1.000  C 
  H54      1.0000 0.56070  0.60650  0.11810  Biso   1.000  H 
  H55      1.0000 0.58870  0.67320  0.10860  Biso   1.000  H 
  H56      1.0000 0.66830  0.62760  0.13530  Biso   1.000  H 
  O19      1.0000 0.90690  0.56295  0.75311  Biso   1.000  O 
  C66      1.0000 0.96530  0.60380  0.77520  Biso   1.000  C 
  O20      1.0000 0.93760  0.65462  0.78760  Biso   1.000  O 
  C67      1.0000 0.07020  0.58980  0.78850  Biso   1.000  C 
  C68      1.0000 0.13250  0.63150  0.81800  Biso   1.000  C 
  H57      1.0000 0.10950  0.66920  0.82610  Biso   1.000  H 
  C69      1.0000 0.22850  0.61740  0.83520  Biso   1.000  C 
  C70      1.0000 0.26420  0.56180  0.82440  Biso   1.000  C 
  C71      1.0000 0.36930  0.54540  0.84660  Biso   1.000  C 
  H58      1.0000 0.37040  0.51550  0.87810  Biso   1.000  H 
  H59      1.0000 0.40040  0.53030  0.81270  Biso   1.000  H 
  H60      1.0000 0.40340  0.58010  0.86320  Biso   1.000  H 
  C72      1.0000 0.20300  0.52160  0.79340  Biso   1.000  C 
  H61      1.0000 0.22730  0.48460  0.78410  Biso   1.000  H 
  C73      1.0000 0.10520  0.53400  0.77520  Biso   1.000  C 
  H62      1.0000 0.06460  0.50570  0.75480  Biso   1.000  H 
  H63      1.0000 0.26990  0.64590  0.85450  Biso   1.000  H 
  O21      1.0000 0.61540  0.69231  0.80228  Biso   1.000  O 
  C74      1.0000 0.58250  0.72420  0.75780  Biso   1.000  C 
  O22      1.0000 0.63980  0.76141  0.73484  Biso   1.000  O 
  C75      1.0000 0.48230  0.71700  0.72810  Biso   1.000  C 
  C76      1.0000 0.43390  0.66510  0.73670  Biso   1.000  C 
  C77      1.0000 0.34210  0.65550  0.70740  Biso   1.000  C 
  H64      1.0000 0.31060  0.61990  0.71340  Biso   1.000  H 
  C78      1.0000 0.29630  0.69800  0.66910  Biso   1.000  C 
  C79      1.0000 0.19360  0.68800  0.63740  Biso   1.000  C 
  H65      1.0000 0.17230  0.64880  0.64670  Biso   1.000  H 
  H66      1.0000 0.15040  0.71680  0.65210  Biso   1.000  H 
  H67      1.0000 0.19340  0.69220  0.59360  Biso   1.000  H 
  C80      1.0000 0.34580  0.74980  0.66080  Biso   1.000  C 
  H68      1.0000 0.31580  0.77920  0.63540  Biso   1.000  H 
  C81      1.0000 0.43800  0.75930  0.68890  Biso   1.000  C 
  H69      1.0000 0.47060  0.79420  0.68150  Biso   1.000  H 
  H70      1.0000 0.46350  0.63610  0.76270  Biso   1.000  H 
  O23      1.0000 0.83810  0.73064  0.87999  Biso   1.000  O 
  C82      1.0000 0.82910  0.78510  0.87030  Biso   1.000  C 
  O24      1.0000 0.80020  0.80239  0.81548  Biso   1.000  O 
  C83      1.0000 0.85130  0.82800  0.92080  Biso   1.000  C 
  C84      1.0000 0.84820  0.88870  0.91090  Biso   1.000  C 
  H71      1.0000 0.82810  0.90330  0.87160  Biso   1.000  H 
  C85      1.0000 0.87450  0.92770  0.95830  Biso   1.000  C 
  H72      1.0000 0.87280  0.96830  0.95030  Biso   1.000  H 
  C86      1.0000 0.90320  0.90800  0.01730  Biso   1.000  C 
  C87      1.0000 0.93480  0.95000  0.06990  Biso   1.000  C 
  H73      1.0000 0.91570  0.98980  0.05820  Biso   1.000  H 
  H74      1.0000 0.90460  0.93860  0.10560  Biso   1.000  H 
  H75      1.0000 0.00420  0.94830  0.07930  Biso   1.000  H 
  C88      1.0000 0.90400  0.84750  0.02760  Biso   1.000  C 
  H76      1.0000 0.92160  0.83300  0.06720  Biso   1.000  H 
  C89      1.0000 0.87930  0.80830  0.98050  Biso   1.000  C 
  H77      1.0000 0.88120  0.76770  0.98860  Biso   1.000  H 
  O25      1.0000 0.84400  0.73165  0.69304  Biso   1.000  O 
  C90      1.0000 0.83190  0.77270  0.65430  Biso   1.000  C 
  O26      1.0000 0.78500  0.81952  0.66297  Biso   1.000  O 
  C91      1.0000 0.87480  0.76730  0.59490  Biso   1.000  C 
  C92      1.0000 0.92630  0.71730  0.58150  Biso   1.000  C 
  H78      1.0000 0.93380  0.68600  0.60950  Biso   1.000  H 
  C93      1.0000 0.96710  0.71340  0.52630  Biso   1.000  C 
  C94      1.0000 0.95780  0.75900  0.48450  Biso   1.000  C 
  C95      1.0000 0.90530  0.80780  0.49820  Biso   1.000  C 
  H79      1.0000 0.89700  0.83880  0.46980  Biso   1.000  H 
  C96      1.0000 0.86460  0.81240  0.55250  Biso   1.000  C 
  H80      1.0000 0.82980  0.84640  0.56050  Biso   1.000  H 
  C97      1.0000 0.00370  0.75580  0.42490  Biso   1.000  C 
  H81      1.0000 0.05350  0.72590  0.42840  Biso   1.000  H 
  H82      1.0000 0.03180  0.79370  0.41690  Biso   1.000  H 
  H83      1.0000 0.95490  0.74590  0.39160  Biso   1.000  H 
  H84      1.0000 0.00110  0.67930  0.51760  Biso   1.000  H 
  C98      1.0000 0.58710  0.93300  0.65350  Biso   1.000  C 
  C99      1.0000 0.51800  0.96850  0.61170  Biso   1.000  C 
  C100     1.0000 0.42700  0.94590  0.59210  Biso   1.000  C 
  H85      1.0000 0.41100  0.90760  0.60370  Biso   1.000  H 
  C101     1.0000 0.35970  0.97910  0.55560  Biso   1.000  C 
  H86      1.0000 0.29860  0.96330  0.54310  Biso   1.000  H 
  C102     1.0000 0.38220  0.03570  0.53740  Biso   1.000  C 
  C103     1.0000 0.30740  0.07310  0.49850  Biso   1.000  C 
  H87      1.0000 0.26870  0.04790  0.46990  Biso   1.000  H 
  H88      1.0000 0.34000  0.10230  0.47620  Biso   1.000  H 
  H89      1.0000 0.26630  0.09260  0.52480  Biso   1.000  H 
  C104     1.0000 0.47350  0.05800  0.55580  Biso   1.000  C 
  H90      1.0000 0.48950  0.09590  0.54330  Biso   1.000  H 
  C105     1.0000 0.54170  0.02530  0.59240  Biso   1.000  C 
  H91      1.0000 0.60320  0.04100  0.60420  Biso   1.000  H 
  O27      1.0000 0.56660  0.88156  0.66730  Biso   1.000  O 
  O28      1.0000 0.66830  0.95539  0.67555  Biso   1.000  O 
  C106     1.0000 0.59820  0.91650  0.82640  Biso   1.000  C 
  C107     1.0000 0.53410  0.94750  0.86540  Biso   1.000  C 
  C108     1.0000 0.46380  0.91560  0.89210  Biso   1.000  C 
  H92      1.0000 0.45910  0.87470  0.88650  Biso   1.000  H 
  C109     1.0000 0.40150  0.94420  0.92670  Biso   1.000  C 
  H93      1.0000 0.35450  0.92230  0.94400  Biso   1.000  H 
  C110     1.0000 0.40680  0.00450  0.93640  Biso   1.000  C 
  C111     1.0000 0.33740  0.03600  0.97410  Biso   1.000  C 
  H94      1.0000 0.28650  0.05440  0.94690  Biso   1.000  H 
  H95      1.0000 0.37190  0.06590  0.99910  Biso   1.000  H 
  H96      1.0000 0.30960  0.00780  0.00010  Biso   1.000  H 
  C112     1.0000 0.47790  0.03610  0.91080  Biso   1.000  C 
  H97      1.0000 0.48310  0.07690  0.91720  Biso   1.000  H 
  C113     1.0000 0.54100  0.00770  0.87610  Biso   1.000  C 
  H98      1.0000 0.58890  0.02950  0.85950  Biso   1.000  H 
  O29      1.0000 0.58990  0.86249  0.81540  Biso   1.000  O 
  O30      1.0000 0.66420  0.94598  0.80270  Biso   1.000  O 
  C114     1.0000 0.00850  0.91330  0.77990  Biso   1.000  C 
  C115     1.0000 0.01000  0.85400  0.76360  Biso   1.000  C 
  C116     1.0000 0.09410  0.82150  0.77070  Biso   1.000  C 
  H99      1.0000 0.09270  0.78170  0.75920  Biso   1.000  H 
  C117     1.0000 0.18040  0.84660  0.79450  Biso   1.000  C 
  C118     1.0000 0.27320  0.81050  0.80540  Biso   1.000  C 
  H100     1.0000 0.26420  0.77310  0.78440  Biso   1.000  H 
  H101     1.0000 0.28880  0.80360  0.84880  Biso   1.000  H 
  H102     1.0000 0.32530  0.83180  0.78990  Biso   1.000  H 
  C119     1.0000 0.18050  0.90640  0.81020  Biso   1.000  C 
  H103     1.0000 0.23850  0.92430  0.82620  Biso   1.000  H 
  C120     1.0000 0.09690  0.93940  0.80280  Biso   1.000  C 
  H104     1.0000 0.09890  0.97950  0.81310  Biso   1.000  H 
  H105     1.0000 0.95240  0.83570  0.74750  Biso   1.000  H 
  O31      1.0000 0.88460  0.19231  0.69772  Biso   1.000  O 
  C121     1.0000 0.91750  0.22420  0.74220  Biso   1.000  C 
  O32      1.0000 0.86020  0.26141  0.76516  Biso   1.000  O 
  C122     1.0000 0.01770  0.21700  0.77190  Biso   1.000  C 
  C123     1.0000 0.06610  0.16510  0.76330  Biso   1.000  C 
  H106     1.0000 0.03650  0.13610  0.73730  Biso   1.000  H 
  C124     1.0000 0.15790  0.15550  0.79260  Biso   1.000  C 
  H107     1.0000 0.18940  0.11990  0.78660  Biso   1.000  H 
  C125     1.0000 0.20370  0.19800  0.83090  Biso   1.000  C 
  C126     1.0000 0.30640  0.18800  0.86260  Biso   1.000  C 
  H108     1.0000 0.30660  0.19220  0.90640  Biso   1.000  H 
  H109     1.0000 0.32770  0.14880  0.85330  Biso   1.000  H 
  H110     1.0000 0.34960  0.21680  0.84790  Biso   1.000  H 
  C127     1.0000 0.15420  0.24980  0.83920  Biso   1.000  C 
  H111     1.0000 0.18420  0.27920  0.86460  Biso   1.000  H 
  C128     1.0000 0.06200  0.25930  0.81110  Biso   1.000  C 
  H112     1.0000 0.02940  0.29420  0.81850  Biso   1.000  H 
  O33      1.0000 0.66190  0.23064  0.62001  Biso   1.000  O 
  C129     1.0000 0.67090  0.28510  0.62970  Biso   1.000  C 
  C130     1.0000 0.64870  0.32800  0.57920  Biso   1.000  C 
  C131     1.0000 0.65180  0.38870  0.58910  Biso   1.000  C 
  H113     1.0000 0.67190  0.40330  0.62840  Biso   1.000  H 
  C132     1.0000 0.62550  0.42770  0.54170  Biso   1.000  C 
  H114     1.0000 0.62720  0.46830  0.54970  Biso   1.000  H 
  C133     1.0000 0.59680  0.40800  0.48270  Biso   1.000  C 
  C134     1.0000 0.56520  0.45000  0.43010  Biso   1.000  C 
  H115     1.0000 0.49580  0.44830  0.42070  Biso   1.000  H 
  H116     1.0000 0.58430  0.48980  0.44180  Biso   1.000  H 
  H117     1.0000 0.59540  0.43860  0.39440  Biso   1.000  H 
  C135     1.0000 0.59600  0.34750  0.47240  Biso   1.000  C 
  H118     1.0000 0.57840  0.33300  0.43280  Biso   1.000  H 
  C136     1.0000 0.62070  0.30830  0.51950  Biso   1.000  C 
  H119     1.0000 0.61880  0.26770  0.51140  Biso   1.000  H 
  O34      1.0000 0.69980  0.30239  0.68452  Biso   1.000  O 
  O35      1.0000 0.65600  0.23165  0.80696  Biso   1.000  O 
  C137     1.0000 0.66810  0.27270  0.84570  Biso   1.000  C 
  C138     1.0000 0.62520  0.26730  0.90510  Biso   1.000  C 
  C139     1.0000 0.57370  0.21730  0.91850  Biso   1.000  C 
  C140     1.0000 0.53290  0.21340  0.97370  Biso   1.000  C 
  H120     1.0000 0.49890  0.17930  0.98240  Biso   1.000  H 
  C141     1.0000 0.54220  0.25900  0.01550  Biso   1.000  C 
  C142     1.0000 0.49630  0.25580  0.07510  Biso   1.000  C 
  H121     1.0000 0.44650  0.22590  0.07160  Biso   1.000  H 
  H122     1.0000 0.46820  0.29370  0.08310  Biso   1.000  H 
  H123     1.0000 0.54510  0.24590  0.10840  Biso   1.000  H 
  C143     1.0000 0.59470  0.30780  0.00180  Biso   1.000  C 
  H124     1.0000 0.60300  0.33880  0.03020  Biso   1.000  H 
  C144     1.0000 0.63540  0.31240  0.94750  Biso   1.000  C 
  H125     1.0000 0.67020  0.34640  0.93950  Biso   1.000  H 
  H126     1.0000 0.56620  0.18600  0.89050  Biso   1.000  H 
  O36      1.0000 0.71500  0.31952  0.83703  Biso   1.000  O 
