data_image0
_cell_length_a       25.7126
_cell_length_b       25.7126
_cell_length_c       6.82407
_cell_angle_alpha    90
_cell_angle_beta     90
_cell_angle_gamma    120

_symmetry_space_group_name_H-M    "P 1"
_symmetry_int_tables_number       1

loop_
  _symmetry_equiv_pos_as_xyz
  'x, y, z'

loop_
  _atom_site_label
  _atom_site_occupancy
  _atom_site_fract_x
  _atom_site_fract_y
  _atom_site_fract_z
  _atom_site_thermal_displace_type
  _atom_site_B_iso_or_equiv
  _atom_site_type_symbol
  C1       1.0000 0.01530  0.50370  0.80590  Biso   1.000  C 
  C2       1.0000 0.00490  0.54540  0.87820  Biso   1.000  C 
  C3       1.0000 0.01280  0.59350  0.72970  Biso   1.000  C 
  O1       1.0000 0.00640  0.63830  0.80250  Biso   1.000  O 
  Ni1      1.0000 0.01819  0.71447  0.68653  Biso   1.000  Ni
  O2       1.0000 0.01897  0.79783  0.56413  Biso   1.000  O 
  C4       1.0000 0.04977  0.84643  0.53723  Biso   1.000  C 
  O3       1.0000 0.08057  0.89503  0.51033  Biso   1.000  O 
  O4       1.0000 0.96523  0.66027  0.46917  Biso   1.000  O 
  C5       1.0000 0.91403  0.65387  0.39637  Biso   1.000  C 
  O5       1.0000 0.89803  0.63717  0.22417  Biso   1.000  O 
  Ni2      1.0000 0.95219  0.63705  0.01987  Biso   1.000  Ni
  O6       1.0000 0.86883  0.55447  0.89747  Biso   1.000  O 
  C6       1.0000 0.82023  0.53667  0.87057  Biso   1.000  C 
  O7       1.0000 0.77163  0.51887  0.84367  Biso   1.000  O 
  O8       1.0000 0.94223  0.69047  0.82777  Biso   1.000  O 
  C7       1.0000 0.88783  0.67847  0.74827  Biso   1.000  C 
  C8       1.0000 0.84493  0.68197  0.86077  Biso   1.000  C 
  C9       1.0000 0.79283  0.67157  0.78847  Biso   1.000  C 
  C10      1.0000 0.75263  0.67947  0.93697  Biso   1.000  C 
  O9       1.0000 0.70143  0.67307  0.86417  Biso   1.000  O 
  Ni3      1.0000 0.64848  0.61886  0.64680  Biso   1.000  Ni
  O10      1.0000 0.64770  0.53550  0.76920  Biso   1.000  O 
  C11      1.0000 0.61690  0.48690  0.79610  Biso   1.000  C 
  O11      1.0000 0.58610  0.43830  0.82300  Biso   1.000  O 
  Ni4      1.0000 0.63705  0.68485  0.98013  Biso   1.000  Ni
  O12      1.0000 0.58510  0.60890  0.83890  Biso   1.000  O 
  C12      1.0000 0.54270  0.55450  0.91840  Biso   1.000  C 
  C13      1.0000 0.49630  0.51160  0.80590  Biso   1.000  C 
  H1       1.0000 0.49399  0.52108  0.65162  Biso   1.000  H 
  C14      1.0000 0.45460  0.45950  0.87820  Biso   1.000  C 
  C15      1.0000 0.40650  0.41930  0.72970  Biso   1.000  C 
  O13      1.0000 0.40580  0.43530  0.55750  Biso   1.000  O 
  Ni5      1.0000 0.35152  0.38114  0.35320  Biso   1.000  Ni
  Ni6      1.0000 0.28553  0.30371  0.68653  Biso   1.000  Ni
  O14      1.0000 0.20217  0.22113  0.56413  Biso   1.000  O 
  C16      1.0000 0.15357  0.20333  0.53723  Biso   1.000  C 
  O15      1.0000 0.10497  0.18553  0.51033  Biso   1.000  O 
  O16      1.0000 0.30953  0.25177  0.82777  Biso   1.000  O 
  C17      1.0000 0.32153  0.20937  0.74827  Biso   1.000  C 
  C18      1.0000 0.31803  0.16297  0.86077  Biso   1.000  C 
  C19      1.0000 0.32843  0.12127  0.78847  Biso   1.000  C 
  C20      1.0000 0.32053  0.07317  0.93697  Biso   1.000  C 
  O17      1.0000 0.32693  0.02837  0.86417  Biso   1.000  O 
  Ni7      1.0000 0.38114  0.02962  0.64680  Biso   1.000  Ni
  Ni8      1.0000 0.30371  0.01819  0.31347  Biso   1.000  Ni
  O18      1.0000 0.22113  0.01897  0.43587  Biso   1.000  O 
  C21      1.0000 0.20333  0.04977  0.46277  Biso   1.000  C 
  O19      1.0000 0.18553  0.08057  0.48967  Biso   1.000  O 
  O20      1.0000 0.25177  0.94223  0.17223  Biso   1.000  O 
  Ni9      1.0000 0.31515  0.95219  0.98013  Biso   1.000  Ni
  O21      1.0000 0.39110  0.97620  0.83890  Biso   1.000  O 
  C22      1.0000 0.44550  0.98820  0.91840  Biso   1.000  C 
  C23      1.0000 0.48840  0.98470  0.80590  Biso   1.000  C 
  H2       1.0000 0.47892  0.97291  0.65162  Biso   1.000  H 
  C24      1.0000 0.54050  0.99510  0.87820  Biso   1.000  C 
  C25      1.0000 0.58070  0.98720  0.72970  Biso   1.000  C 
  O22      1.0000 0.56470  0.97050  0.55750  Biso   1.000  O 
  Ni10     1.0000 0.61886  0.97038  0.35320  Biso   1.000  Ni
  O23      1.0000 0.53550  0.88780  0.23080  Biso   1.000  O 
  C26      1.0000 0.48690  0.87000  0.20390  Biso   1.000  C 
  O24      1.0000 0.43830  0.85220  0.17700  Biso   1.000  O 
  Ni11     1.0000 0.69629  0.98181  0.68653  Biso   1.000  Ni
  O25      1.0000 0.77887  0.98103  0.56413  Biso   1.000  O 
  C27      1.0000 0.79667  0.95023  0.53723  Biso   1.000  C 
  O26      1.0000 0.81447  0.91943  0.51033  Biso   1.000  O 
  O27      1.0000 0.74823  0.05777  0.82777  Biso   1.000  O 
  C28      1.0000 0.79063  0.11217  0.74827  Biso   1.000  C 
  C29      1.0000 0.83703  0.15507  0.86077  Biso   1.000  C 
  C30      1.0000 0.87873  0.20717  0.78847  Biso   1.000  C 
  C31      1.0000 0.87603  0.22117  0.58507  Biso   1.000  C 
  O28      1.0000 0.91843  0.27557  0.50557  Biso   1.000  O 
  Ni12     1.0000 0.97038  0.35152  0.64680  Biso   1.000  Ni
  O29      1.0000 0.88780  0.35230  0.76920  Biso   1.000  O 
  C32      1.0000 0.87000  0.38310  0.79610  Biso   1.000  C 
  O30      1.0000 0.85220  0.41390  0.82300  Biso   1.000  O 
  Ni13     1.0000 0.98181  0.28553  0.31347  Biso   1.000  Ni
  O31      1.0000 0.98103  0.20217  0.43587  Biso   1.000  O 
  C33      1.0000 0.95023  0.15357  0.46277  Biso   1.000  C 
  O32      1.0000 0.91943  0.10497  0.48967  Biso   1.000  O 
  Ni14     1.0000 0.04781  0.36295  0.98013  Biso   1.000  Ni
  O33      1.0000 0.97163  0.29857  0.86417  Biso   1.000  O 
  C34      1.0000 0.92683  0.24737  0.93697  Biso   1.000  C 
  O34      1.0000 0.92753  0.23137  0.10917  Biso   1.000  O 
  O35      1.0000 0.02380  0.41490  0.83890  Biso   1.000  O 
  C35      1.0000 0.01180  0.45730  0.91840  Biso   1.000  C 
  C36      1.0000 0.99510  0.45460  0.12180  Biso   1.000  C 
  C37      1.0000 0.98720  0.40650  0.27030  Biso   1.000  C 
  O36      1.0000 0.99360  0.36170  0.19750  Biso   1.000  O 
  O37      1.0000 0.97050  0.40580  0.44250  Biso   1.000  O 
  C38      1.0000 0.98470  0.49630  0.19410  Biso   1.000  C 
  H3       1.0000 0.97291  0.49399  0.34838  Biso   1.000  H 
  C39      1.0000 0.98820  0.54270  0.08160  Biso   1.000  C 
  O38      1.0000 0.97620  0.58510  0.16110  Biso   1.000  O 
  Ni15     1.0000 0.02962  0.64848  0.35320  Biso   1.000  Ni
  O39      1.0000 0.11220  0.64770  0.23080  Biso   1.000  O 
  C40      1.0000 0.13000  0.61690  0.20390  Biso   1.000  C 
  O40      1.0000 0.14780  0.58610  0.17700  Biso   1.000  O 
  O41      1.0000 0.08157  0.72443  0.49443  Biso   1.000  O 
  C41      1.0000 0.12397  0.77883  0.41493  Biso   1.000  C 
  C42      1.0000 0.17037  0.82173  0.52743  Biso   1.000  C 
  H4       1.0000 0.17267  0.81225  0.68172  Biso   1.000  H 
  C43      1.0000 0.21207  0.87383  0.45513  Biso   1.000  C 
  C44      1.0000 0.20937  0.88783  0.25173  Biso   1.000  C 
  C45      1.0000 0.16297  0.84493  0.13923  Biso   1.000  C 
  C46      1.0000 0.12127  0.79283  0.21153  Biso   1.000  C 
  C47      1.0000 0.07317  0.75263  0.06303  Biso   1.000  C 
  O42      1.0000 0.02837  0.70143  0.13583  Biso   1.000  O 
  O43      1.0000 0.07247  0.76863  0.89083  Biso   1.000  O 
  H5       1.0000 0.16066  0.85442  0.98495  Biso   1.000  H 
  C48      1.0000 0.26017  0.91403  0.60363  Biso   1.000  C 
  O44      1.0000 0.30497  0.96523  0.53083  Biso   1.000  O 
  O45      1.0000 0.26087  0.89803  0.77583  Biso   1.000  O 
  O46      1.0000 0.02950  0.59420  0.55750  Biso   1.000  O 
  O47      1.0000 0.05777  0.30953  0.17223  Biso   1.000  O 
  C49      1.0000 0.11217  0.32153  0.25173  Biso   1.000  C 
  C50      1.0000 0.15507  0.31803  0.13923  Biso   1.000  C 
  C51      1.0000 0.20717  0.32843  0.21153  Biso   1.000  C 
  C52      1.0000 0.22117  0.34513  0.41493  Biso   1.000  C 
  O48      1.0000 0.27557  0.35713  0.49443  Biso   1.000  O 
  C53      1.0000 0.17827  0.34863  0.52743  Biso   1.000  C 
  C54      1.0000 0.12617  0.33823  0.45513  Biso   1.000  C 
  C55      1.0000 0.08597  0.34613  0.60363  Biso   1.000  C 
  O49      1.0000 0.03477  0.33973  0.53083  Biso   1.000  O 
  O50      1.0000 0.10197  0.36283  0.77583  Biso   1.000  O 
  H6       1.0000 0.18775  0.36042  0.68172  Biso   1.000  H 
  C56      1.0000 0.24737  0.32053  0.06303  Biso   1.000  C 
  O51      1.0000 0.29857  0.32693  0.13583  Biso   1.000  O 
  Ni16     1.0000 0.36295  0.31515  0.01987  Biso   1.000  Ni
  O52      1.0000 0.36170  0.36810  0.80250  Biso   1.000  O 
  O53      1.0000 0.44553  0.31437  0.89747  Biso   1.000  O 
  C57      1.0000 0.46333  0.28357  0.87057  Biso   1.000  C 
  O54      1.0000 0.48113  0.25277  0.84367  Biso   1.000  O 
  O55      1.0000 0.41490  0.39110  0.16110  Biso   1.000  O 
  C58      1.0000 0.45730  0.44550  0.08160  Biso   1.000  C 
  C59      1.0000 0.50370  0.48840  0.19410  Biso   1.000  C 
  H7       1.0000 0.50601  0.47892  0.34838  Biso   1.000  H 
  C60      1.0000 0.54540  0.54050  0.12180  Biso   1.000  C 
  C61      1.0000 0.59350  0.58070  0.27030  Biso   1.000  C 
  O56      1.0000 0.59420  0.56470  0.44250  Biso   1.000  O 
  O57      1.0000 0.63830  0.63190  0.19750  Biso   1.000  O 
  Ni17     1.0000 0.71447  0.69629  0.31347  Biso   1.000  Ni
  O58      1.0000 0.79783  0.77887  0.43587  Biso   1.000  O 
  C62      1.0000 0.84643  0.79667  0.46277  Biso   1.000  C 
  O59      1.0000 0.89503  0.81447  0.48967  Biso   1.000  O 
  O60      1.0000 0.69047  0.74823  0.17223  Biso   1.000  O 
  C63      1.0000 0.67847  0.79063  0.25173  Biso   1.000  C 
  C64      1.0000 0.68197  0.83703  0.13923  Biso   1.000  C 
  C65      1.0000 0.67157  0.87873  0.21153  Biso   1.000  C 
  C66      1.0000 0.65487  0.87603  0.41493  Biso   1.000  C 
  O61      1.0000 0.64287  0.91843  0.49443  Biso   1.000  O 
  C67      1.0000 0.65137  0.82963  0.52743  Biso   1.000  C 
  H8       1.0000 0.63958  0.82733  0.68172  Biso   1.000  H 
  C68      1.0000 0.66177  0.78793  0.45513  Biso   1.000  C 
  C69      1.0000 0.65387  0.73983  0.60363  Biso   1.000  C 
  O62      1.0000 0.66027  0.69503  0.53083  Biso   1.000  O 
  O63      1.0000 0.63717  0.73913  0.77583  Biso   1.000  O 
  C70      1.0000 0.67947  0.92683  0.06303  Biso   1.000  C 
  O64      1.0000 0.67307  0.97163  0.13583  Biso   1.000  O 
  Ni18     1.0000 0.68485  0.04781  0.01987  Biso   1.000  Ni
  O65      1.0000 0.68563  0.13117  0.89747  Biso   1.000  O 
  C71      1.0000 0.71643  0.17977  0.87057  Biso   1.000  C 
  O66      1.0000 0.74723  0.22837  0.84367  Biso   1.000  O 
  O67      1.0000 0.63190  0.99360  0.80250  Biso   1.000  O 
  O68      1.0000 0.60890  0.02380  0.16110  Biso   1.000  O 
  C72      1.0000 0.55450  0.01180  0.08160  Biso   1.000  C 
  C73      1.0000 0.51160  0.01530  0.19410  Biso   1.000  C 
  C74      1.0000 0.45950  0.00490  0.12180  Biso   1.000  C 
  C75      1.0000 0.41930  0.01280  0.27030  Biso   1.000  C 
  O69      1.0000 0.36810  0.00640  0.19750  Biso   1.000  O 
  O70      1.0000 0.43530  0.02950  0.44250  Biso   1.000  O 
  H9       1.0000 0.52108  0.02709  0.34838  Biso   1.000  H 
  O71      1.0000 0.73913  0.10197  0.22417  Biso   1.000  O 
  C76      1.0000 0.73983  0.08597  0.39637  Biso   1.000  C 
  O72      1.0000 0.69503  0.03477  0.46917  Biso   1.000  O 
  C77      1.0000 0.78793  0.12617  0.54487  Biso   1.000  C 
  C78      1.0000 0.82963  0.17827  0.47257  Biso   1.000  C 
  H10      1.0000 0.82733  0.18775  0.31828  Biso   1.000  H 
  O73      1.0000 0.69617  0.92753  0.89083  Biso   1.000  O 
  H11      1.0000 0.69376  0.83934  0.98495  Biso   1.000  H 
  O74      1.0000 0.72443  0.64287  0.50557  Biso   1.000  O 
  C79      1.0000 0.77883  0.65487  0.58507  Biso   1.000  C 
  C80      1.0000 0.82173  0.65137  0.47257  Biso   1.000  C 
  H12      1.0000 0.81225  0.63958  0.31828  Biso   1.000  H 
  C81      1.0000 0.87383  0.66177  0.54487  Biso   1.000  C 
  O75      1.0000 0.76863  0.69617  0.10917  Biso   1.000  O 
  O76      1.0000 0.36283  0.26087  0.22417  Biso   1.000  O 
  C82      1.0000 0.34613  0.26017  0.39637  Biso   1.000  C 
  O77      1.0000 0.33973  0.30497  0.46917  Biso   1.000  O 
  C83      1.0000 0.33823  0.21207  0.54487  Biso   1.000  C 
  C84      1.0000 0.34863  0.17037  0.47257  Biso   1.000  C 
  C85      1.0000 0.34513  0.12397  0.58507  Biso   1.000  C 
  O78      1.0000 0.35713  0.08157  0.50557  Biso   1.000  O 
  H13      1.0000 0.36042  0.17267  0.31828  Biso   1.000  H 
  O79      1.0000 0.23137  0.30383  0.89083  Biso   1.000  O 
  H14      1.0000 0.14558  0.30624  0.98495  Biso   1.000  H 
  O80      1.0000 0.13117  0.44553  0.10253  Biso   1.000  O 
  C86      1.0000 0.17977  0.46333  0.12943  Biso   1.000  C 
  O81      1.0000 0.22837  0.48113  0.15633  Biso   1.000  O 
  H15      1.0000 0.83934  0.14558  0.01505  Biso   1.000  H 
  O82      1.0000 0.31437  0.86883  0.10253  Biso   1.000  O 
  C87      1.0000 0.28357  0.82023  0.12943  Biso   1.000  C 
  O83      1.0000 0.25277  0.77163  0.15633  Biso   1.000  O 
  O84      1.0000 0.30383  0.07247  0.10917  Biso   1.000  O 
  O85      1.0000 0.46450  0.11220  0.76920  Biso   1.000  O 
  C88      1.0000 0.51310  0.13000  0.79610  Biso   1.000  C 
  O86      1.0000 0.56170  0.14780  0.82300  Biso   1.000  O 
  H16      1.0000 0.30624  0.16066  0.01505  Biso   1.000  H 
  O87      1.0000 0.35230  0.46450  0.23080  Biso   1.000  O 
  C89      1.0000 0.38310  0.51310  0.20390  Biso   1.000  C 
  O88      1.0000 0.41390  0.56170  0.17700  Biso   1.000  O 
  O89      1.0000 0.55447  0.68563  0.10253  Biso   1.000  O 
  C90      1.0000 0.53667  0.71643  0.12943  Biso   1.000  C 
  O90      1.0000 0.51887  0.74723  0.15633  Biso   1.000  O 
  H17      1.0000 0.85442  0.69376  0.01505  Biso   1.000  H 
  H18      1.0000 0.02709  0.50601  0.65162  Biso   1.000  H 
