data_image0
_cell_length_a       25.9343
_cell_length_b       25.9343
_cell_length_c       6.84218
_cell_angle_alpha    90
_cell_angle_beta     90
_cell_angle_gamma    120

_symmetry_space_group_name_H-M    "P 1"
_symmetry_int_tables_number       1

loop_
  _symmetry_equiv_pos_as_xyz
  'x, y, z'

loop_
  _atom_site_label
  _atom_site_occupancy
  _atom_site_fract_x
  _atom_site_fract_y
  _atom_site_fract_z
  _atom_site_thermal_displace_type
  _atom_site_B_iso_or_equiv
  _atom_site_type_symbol
  C1       1.0000 0.00940  0.50060  0.80600  Biso   1.000  C 
  H1       1.0000 0.01428  0.49857  0.64856  Biso   1.000  H 
  C2       1.0000 0.00770  0.45450  0.92500  Biso   1.000  C 
  O1       1.0000 0.02040  0.40870  0.84270  Biso   1.000  O 
  Zn1      1.0000 0.04805  0.36102  0.97033  Biso   1.000  Zn
  O2       1.0000 0.97313  0.29837  0.86597  Biso   1.000  O 
  Zn2      1.0000 0.97231  0.35369  0.63700  Biso   1.000  Zn
  Zn3      1.0000 0.97964  0.28529  0.30367  Biso   1.000  Zn
  O3       1.0000 0.05497  0.31293  0.17603  Biso   1.000  O 
  C3       1.0000 0.11347  0.32563  0.25833  Biso   1.000  C 
  C4       1.0000 0.15787  0.32393  0.13933  Biso   1.000  C 
  C5       1.0000 0.20697  0.32803  0.21233  Biso   1.000  C 
  C6       1.0000 0.21987  0.34103  0.40833  Biso   1.000  C 
  O4       1.0000 0.27837  0.35373  0.49063  Biso   1.000  O 
  Zn4      1.0000 0.28529  0.30564  0.69633  Biso   1.000  Zn
  O5       1.0000 0.31293  0.25797  0.82397  Biso   1.000  O 
  C7       1.0000 0.32563  0.21217  0.74167  Biso   1.000  C 
  C8       1.0000 0.32393  0.16607  0.86067  Biso   1.000  C 
  C9       1.0000 0.32803  0.12107  0.78767  Biso   1.000  C 
  C10      1.0000 0.34103  0.12117  0.59167  Biso   1.000  C 
  O6       1.0000 0.35373  0.07537  0.50937  Biso   1.000  O 
  Zn5      1.0000 0.30564  0.02036  0.30367  Biso   1.000  Zn
  O7       1.0000 0.25797  0.94503  0.17603  Biso   1.000  O 
  Zn6      1.0000 0.31298  0.95195  0.97033  Biso   1.000  Zn
  O8       1.0000 0.38830  0.97960  0.84270  Biso   1.000  O 
  C11      1.0000 0.44680  0.99230  0.92500  Biso   1.000  C 
  C12      1.0000 0.49120  0.99060  0.80600  Biso   1.000  C 
  H2       1.0000 0.48429  0.98572  0.64856  Biso   1.000  H 
  C13      1.0000 0.54030  0.99470  0.87900  Biso   1.000  C 
  C14      1.0000 0.57680  0.98180  0.73300  Biso   1.000  C 
  O9       1.0000 0.56120  0.96840  0.55800  Biso   1.000  O 
  Zn7      1.0000 0.61862  0.97231  0.36300  Biso   1.000  Zn
  Zn8      1.0000 0.69436  0.97964  0.69633  Biso   1.000  Zn
  O10      1.0000 0.74203  0.05497  0.82397  Biso   1.000  O 
  C15      1.0000 0.78783  0.11347  0.74167  Biso   1.000  C 
  C16      1.0000 0.83393  0.15787  0.86067  Biso   1.000  C 
  C17      1.0000 0.87893  0.20697  0.78767  Biso   1.000  C 
  C18      1.0000 0.92833  0.24347  0.93367  Biso   1.000  C 
  O11      1.0000 0.92613  0.22787  0.10867  Biso   1.000  O 
  C19      1.0000 0.87883  0.21987  0.59167  Biso   1.000  C 
  O12      1.0000 0.92463  0.27837  0.50937  Biso   1.000  O 
  C20      1.0000 0.83273  0.17547  0.47267  Biso   1.000  C 
  C21      1.0000 0.78773  0.12637  0.54567  Biso   1.000  C 
  C22      1.0000 0.73833  0.08987  0.39967  Biso   1.000  C 
  O13      1.0000 0.69353  0.03497  0.46737  Biso   1.000  O 
  O14      1.0000 0.74053  0.10547  0.22467  Biso   1.000  O 
  Zn9      1.0000 0.68702  0.04805  0.02967  Biso   1.000  Zn
  O15      1.0000 0.67477  0.97313  0.13403  Biso   1.000  O 
  C23      1.0000 0.68487  0.92833  0.06633  Biso   1.000  C 
  O16      1.0000 0.69827  0.92613  0.89133  Biso   1.000  O 
  C24      1.0000 0.67197  0.87893  0.21233  Biso   1.000  C 
  C25      1.0000 0.65897  0.87883  0.40833  Biso   1.000  C 
  O17      1.0000 0.64627  0.92463  0.49063  Biso   1.000  O 
  C26      1.0000 0.65727  0.83273  0.52733  Biso   1.000  C 
  H3       1.0000 0.65239  0.83476  0.68477  Biso   1.000  H 
  C27      1.0000 0.66137  0.78773  0.45433  Biso   1.000  C 
  C28      1.0000 0.64847  0.73833  0.60033  Biso   1.000  C 
  O18      1.0000 0.65857  0.69353  0.53263  Biso   1.000  O 
  Zn10     1.0000 0.64631  0.61862  0.63700  Biso   1.000  Zn
  Zn11     1.0000 0.63898  0.68702  0.97033  Biso   1.000  Zn
  O19      1.0000 0.59130  0.61170  0.84270  Biso   1.000  O 
  C29      1.0000 0.54550  0.55320  0.92500  Biso   1.000  C 
  C30      1.0000 0.49940  0.50880  0.80600  Biso   1.000  C 
  C31      1.0000 0.45440  0.45970  0.87900  Biso   1.000  C 
  C32      1.0000 0.40500  0.42320  0.73300  Biso   1.000  C 
  O20      1.0000 0.40720  0.43880  0.55800  Biso   1.000  O 
  Zn12     1.0000 0.35369  0.38138  0.36300  Biso   1.000  Zn
  Zn13     1.0000 0.36102  0.31298  0.02967  Biso   1.000  Zn
  O21      1.0000 0.36020  0.36830  0.80070  Biso   1.000  O 
  O22      1.0000 0.40870  0.38830  0.15730  Biso   1.000  O 
  C33      1.0000 0.45450  0.44680  0.07500  Biso   1.000  C 
  C34      1.0000 0.50060  0.49120  0.19400  Biso   1.000  C 
  H4       1.0000 0.49857  0.48429  0.35144  Biso   1.000  H 
  C35      1.0000 0.54560  0.54030  0.12100  Biso   1.000  C 
  C36      1.0000 0.59500  0.57680  0.26700  Biso   1.000  C 
  O23      1.0000 0.59280  0.56120  0.44200  Biso   1.000  O 
  O24      1.0000 0.63980  0.63170  0.19930  Biso   1.000  O 
  Zn14     1.0000 0.71471  0.69436  0.30367  Biso   1.000  Zn
  O25      1.0000 0.68707  0.74203  0.17603  Biso   1.000  O 
  C37      1.0000 0.67437  0.78783  0.25833  Biso   1.000  C 
  C38      1.0000 0.67607  0.83393  0.13933  Biso   1.000  C 
  H5       1.0000 0.68094  0.83191  0.98189  Biso   1.000  H 
  O26      1.0000 0.72163  0.64627  0.50937  Biso   1.000  O 
  C39      1.0000 0.78013  0.65897  0.59167  Biso   1.000  C 
  C40      1.0000 0.82453  0.65727  0.47267  Biso   1.000  C 
  H6       1.0000 0.81763  0.65239  0.31523  Biso   1.000  H 
  C41      1.0000 0.87363  0.66137  0.54567  Biso   1.000  C 
  C42      1.0000 0.91013  0.64847  0.39967  Biso   1.000  C 
  O27      1.0000 0.89453  0.63507  0.22467  Biso   1.000  O 
  Zn15     1.0000 0.95195  0.63898  0.02967  Biso   1.000  Zn
  O28      1.0000 0.00810  0.63980  0.80070  Biso   1.000  O 
  Zn16     1.0000 0.02036  0.71471  0.69633  Biso   1.000  Zn
  O29      1.0000 0.94503  0.68707  0.82397  Biso   1.000  O 
  C43      1.0000 0.88653  0.67437  0.74167  Biso   1.000  C 
  C44      1.0000 0.84213  0.67607  0.86067  Biso   1.000  C 
  C45      1.0000 0.79303  0.67197  0.78767  Biso   1.000  C 
  C46      1.0000 0.75653  0.68487  0.93367  Biso   1.000  C 
  O30      1.0000 0.70163  0.67477  0.86597  Biso   1.000  O 
  O31      1.0000 0.77213  0.69827  0.10867  Biso   1.000  O 
  H7       1.0000 0.84904  0.68094  0.01811  Biso   1.000  H 
  O32      1.0000 0.96503  0.65857  0.46737  Biso   1.000  O 
  Zn17     1.0000 0.02769  0.64631  0.36300  Biso   1.000  Zn
  O33      1.0000 0.97960  0.59130  0.15730  Biso   1.000  O 
  C47      1.0000 0.99230  0.54550  0.07500  Biso   1.000  C 
  C48      1.0000 0.00530  0.54560  0.87900  Biso   1.000  C 
  C49      1.0000 0.01820  0.59500  0.73300  Biso   1.000  C 
  O34      1.0000 0.03160  0.59280  0.55800  Biso   1.000  O 
  C50      1.0000 0.99060  0.49940  0.19400  Biso   1.000  C 
  H8       1.0000 0.98572  0.50143  0.35144  Biso   1.000  H 
  C51      1.0000 0.99470  0.45440  0.12100  Biso   1.000  C 
  C52      1.0000 0.98180  0.40500  0.26700  Biso   1.000  C 
  O35      1.0000 0.99190  0.36020  0.19930  Biso   1.000  O 
  O36      1.0000 0.96840  0.40720  0.44200  Biso   1.000  O 
  O37      1.0000 0.07537  0.72163  0.49063  Biso   1.000  O 
  C53      1.0000 0.12117  0.78013  0.40833  Biso   1.000  C 
  C54      1.0000 0.16727  0.82453  0.52733  Biso   1.000  C 
  H9       1.0000 0.16524  0.81763  0.68477  Biso   1.000  H 
  C55      1.0000 0.21227  0.87363  0.45433  Biso   1.000  C 
  C56      1.0000 0.21217  0.88653  0.25833  Biso   1.000  C 
  C57      1.0000 0.16607  0.84213  0.13933  Biso   1.000  C 
  C58      1.0000 0.12107  0.79303  0.21233  Biso   1.000  C 
  C59      1.0000 0.07167  0.75653  0.06633  Biso   1.000  C 
  O38      1.0000 0.02687  0.70163  0.13403  Biso   1.000  O 
  O39      1.0000 0.07387  0.77213  0.89133  Biso   1.000  O 
  H10      1.0000 0.16809  0.84904  0.98189  Biso   1.000  H 
  C60      1.0000 0.26167  0.91013  0.60033  Biso   1.000  C 
  O40      1.0000 0.25947  0.89453  0.77533  Biso   1.000  O 
  O41      1.0000 0.30647  0.96503  0.53263  Biso   1.000  O 
  Zn18     1.0000 0.38138  0.02769  0.63700  Biso   1.000  Zn
  O42      1.0000 0.43880  0.03160  0.44200  Biso   1.000  O 
  C61      1.0000 0.42320  0.01820  0.26700  Biso   1.000  C 
  O43      1.0000 0.36830  0.00810  0.19930  Biso   1.000  O 
  C62      1.0000 0.45970  0.00530  0.12100  Biso   1.000  C 
  C63      1.0000 0.50880  0.00940  0.19400  Biso   1.000  C 
  C64      1.0000 0.55320  0.00770  0.07500  Biso   1.000  C 
  O44      1.0000 0.61170  0.02040  0.15730  Biso   1.000  O 
  H11      1.0000 0.51571  0.01428  0.35144  Biso   1.000  H 
  O45      1.0000 0.32523  0.02687  0.86597  Biso   1.000  O 
  C65      1.0000 0.31513  0.07167  0.93367  Biso   1.000  C 
  O46      1.0000 0.30173  0.07387  0.10867  Biso   1.000  O 
  O47      1.0000 0.36493  0.25947  0.22467  Biso   1.000  O 
  C66      1.0000 0.35153  0.26167  0.39967  Biso   1.000  C 
  O48      1.0000 0.34143  0.30647  0.46737  Biso   1.000  O 
  C67      1.0000 0.33863  0.21227  0.54567  Biso   1.000  C 
  C68      1.0000 0.34273  0.16727  0.47267  Biso   1.000  C 
  H12      1.0000 0.34761  0.16524  0.31523  Biso   1.000  H 
  O49      1.0000 0.29837  0.32523  0.13403  Biso   1.000  O 
  C69      1.0000 0.24347  0.31513  0.06633  Biso   1.000  C 
  O50      1.0000 0.22787  0.30173  0.89133  Biso   1.000  O 
  H13      1.0000 0.50143  0.51571  0.64856  Biso   1.000  H 
  O51      1.0000 0.63507  0.74053  0.77533  Biso   1.000  O 
  O52      1.0000 0.63170  0.99190  0.80070  Biso   1.000  O 
  H14      1.0000 0.83476  0.18237  0.31523  Biso   1.000  H 
  H15      1.0000 0.83191  0.15096  0.01811  Biso   1.000  H 
  H16      1.0000 0.31906  0.16809  0.01811  Biso   1.000  H 
  C70      1.0000 0.17547  0.34273  0.52733  Biso   1.000  C 
  C71      1.0000 0.12637  0.33863  0.45433  Biso   1.000  C 
  C72      1.0000 0.08987  0.35153  0.60033  Biso   1.000  C 
  O53      1.0000 0.03497  0.34143  0.53263  Biso   1.000  O 
  O54      1.0000 0.10547  0.36493  0.77533  Biso   1.000  O 
  H17      1.0000 0.18237  0.34761  0.68477  Biso   1.000  H 
  H18      1.0000 0.15096  0.31906  0.98189  Biso   1.000  H 
