data_image0
_cell_length_a       25.9243
_cell_length_b       25.9243
_cell_length_c       6.85088
_cell_angle_alpha    90
_cell_angle_beta     90
_cell_angle_gamma    120

_symmetry_space_group_name_H-M    "P 1"
_symmetry_int_tables_number       1

loop_
  _symmetry_equiv_pos_as_xyz
  'x, y, z'

loop_
  _atom_site_label
  _atom_site_occupancy
  _atom_site_fract_x
  _atom_site_fract_y
  _atom_site_fract_z
  _atom_site_thermal_displace_type
  _atom_site_B_iso_or_equiv
  _atom_site_type_symbol
  C1       1.0000 0.01220  0.50110  0.80600  Biso   1.000  C 
  C2       1.0000 0.00770  0.45450  0.92100  Biso   1.000  C 
  O1       1.0000 0.02180  0.41170  0.84370  Biso   1.000  O 
  Zn1      1.0000 0.04853  0.36154  0.97133  Biso   1.000  Zn
  Zn2      1.0000 0.97968  0.28481  0.30467  Biso   1.000  Zn
  O2       1.0000 0.05657  0.31153  0.17703  Biso   1.000  O 
  C3       1.0000 0.11347  0.32563  0.25433  Biso   1.000  C 
  C4       1.0000 0.15557  0.32113  0.13933  Biso   1.000  C 
  C5       1.0000 0.20687  0.32813  0.21233  Biso   1.000  C 
  C6       1.0000 0.21987  0.34103  0.41233  Biso   1.000  C 
  O3       1.0000 0.27677  0.35513  0.48963  Biso   1.000  O 
  Zn3      1.0000 0.28481  0.30512  0.69533  Biso   1.000  Zn
  Zn4      1.0000 0.36154  0.31302  0.02867  Biso   1.000  Zn
  O4       1.0000 0.41170  0.38990  0.15630  Biso   1.000  O 
  Zn5      1.0000 0.35365  0.38186  0.36200  Biso   1.000  Zn
  O5       1.0000 0.40770  0.43910  0.55980  Biso   1.000  O 
  C7       1.0000 0.40540  0.42390  0.73500  Biso   1.000  C 
  O6       1.0000 0.36340  0.37090  0.79950  Biso   1.000  O 
  C8       1.0000 0.45460  0.45980  0.87900  Biso   1.000  C 
  C9       1.0000 0.45450  0.44680  0.07900  Biso   1.000  C 
  C10      1.0000 0.50110  0.48890  0.19400  Biso   1.000  C 
  C11      1.0000 0.54540  0.54020  0.12100  Biso   1.000  C 
  C12      1.0000 0.59460  0.57610  0.26500  Biso   1.000  C 
  O7       1.0000 0.59230  0.56090  0.44020  Biso   1.000  O 
  Zn6      1.0000 0.64635  0.61814  0.63800  Biso   1.000  Zn
  Zn7      1.0000 0.63846  0.68698  0.97133  Biso   1.000  Zn
  O8       1.0000 0.63660  0.62910  0.20050  Biso   1.000  O 
  Zn8      1.0000 0.71519  0.69488  0.30467  Biso   1.000  Zn
  O9       1.0000 0.68847  0.74503  0.17703  Biso   1.000  O 
  C13      1.0000 0.67437  0.78783  0.25433  Biso   1.000  C 
  C14      1.0000 0.67887  0.83443  0.13933  Biso   1.000  C 
  C15      1.0000 0.67187  0.87873  0.21233  Biso   1.000  C 
  C16      1.0000 0.68517  0.92793  0.06833  Biso   1.000  C 
  O10      1.0000 0.67417  0.96993  0.13283  Biso   1.000  O 
  Zn9      1.0000 0.61814  0.97179  0.36200  Biso   1.000  Zn
  Zn10     1.0000 0.69488  0.97968  0.69533  Biso   1.000  Zn
  O11      1.0000 0.74503  0.05657  0.82297  Biso   1.000  O 
  Zn11     1.0000 0.68698  0.04853  0.02867  Biso   1.000  Zn
  O12      1.0000 0.61010  0.02180  0.15630  Biso   1.000  O 
  C17      1.0000 0.55320  0.00770  0.07900  Biso   1.000  C 
  C18      1.0000 0.51110  0.01220  0.19400  Biso   1.000  C 
  H1       1.0000 0.52018  0.02176  0.34899  Biso   1.000  H 
  C19      1.0000 0.45980  0.00520  0.12100  Biso   1.000  C 
  C20      1.0000 0.42390  0.01850  0.26500  Biso   1.000  C 
  O13      1.0000 0.37090  0.00750  0.20050  Biso   1.000  O 
  Zn12     1.0000 0.30512  0.02032  0.30467  Biso   1.000  Zn
  O14      1.0000 0.25497  0.94343  0.17703  Biso   1.000  O 
  C21      1.0000 0.21217  0.88653  0.25433  Biso   1.000  C 
  C22      1.0000 0.16557  0.84443  0.13933  Biso   1.000  C 
  C23      1.0000 0.12127  0.79313  0.21233  Biso   1.000  C 
  C24      1.0000 0.07207  0.75723  0.06833  Biso   1.000  C 
  O15      1.0000 0.03007  0.70423  0.13283  Biso   1.000  O 
  Zn13     1.0000 0.02821  0.64635  0.36200  Biso   1.000  Zn
  Zn14     1.0000 0.02032  0.71519  0.69533  Biso   1.000  Zn
  Zn15     1.0000 0.95147  0.63846  0.02867  Biso   1.000  Zn
  O16      1.0000 0.97820  0.58830  0.15630  Biso   1.000  O 
  C25      1.0000 0.99230  0.54550  0.07900  Biso   1.000  C 
  C26      1.0000 0.98780  0.49890  0.19400  Biso   1.000  C 
  C27      1.0000 0.99480  0.45460  0.12100  Biso   1.000  C 
  C28      1.0000 0.98150  0.40540  0.26500  Biso   1.000  C 
  O17      1.0000 0.99250  0.36340  0.20050  Biso   1.000  O 
  O18      1.0000 0.96860  0.40770  0.44020  Biso   1.000  O 
  Zn16     1.0000 0.97179  0.35365  0.63800  Biso   1.000  Zn
  O19      1.0000 0.03757  0.34083  0.53383  Biso   1.000  O 
  C29      1.0000 0.09057  0.35183  0.59833  Biso   1.000  C 
  O20      1.0000 0.10577  0.36473  0.77353  Biso   1.000  O 
  C30      1.0000 0.12647  0.33853  0.45433  Biso   1.000  C 
  C31      1.0000 0.17777  0.34553  0.52733  Biso   1.000  C 
  H2       1.0000 0.18685  0.35509  0.68232  Biso   1.000  H 
  O21      1.0000 0.92163  0.27677  0.51037  Biso   1.000  O 
  C32      1.0000 0.87883  0.21987  0.58767  Biso   1.000  C 
  C33      1.0000 0.83223  0.17777  0.47267  Biso   1.000  C 
  C34      1.0000 0.78793  0.12647  0.54567  Biso   1.000  C 
  C35      1.0000 0.78783  0.11347  0.74567  Biso   1.000  C 
  C36      1.0000 0.83443  0.15557  0.86067  Biso   1.000  C 
  C37      1.0000 0.87873  0.20687  0.78767  Biso   1.000  C 
  C38      1.0000 0.92793  0.24277  0.93167  Biso   1.000  C 
  O22      1.0000 0.96993  0.29577  0.86717  Biso   1.000  O 
  O23      1.0000 0.92563  0.22757  0.10687  Biso   1.000  O 
  H3       1.0000 0.83491  0.14649  0.01565  Biso   1.000  H 
  C39      1.0000 0.73873  0.09057  0.40167  Biso   1.000  C 
  O24      1.0000 0.74103  0.10577  0.22647  Biso   1.000  O 
  O25      1.0000 0.69673  0.03757  0.46617  Biso   1.000  O 
  H4       1.0000 0.83175  0.18685  0.31768  Biso   1.000  H 
  H5       1.0000 0.97824  0.49842  0.34899  Biso   1.000  H 
  C40      1.0000 0.00520  0.54540  0.87900  Biso   1.000  C 
  C41      1.0000 0.01850  0.59460  0.73500  Biso   1.000  C 
  O26      1.0000 0.03140  0.59230  0.55980  Biso   1.000  O 
  O27      1.0000 0.00750  0.63660  0.79950  Biso   1.000  O 
  O28      1.0000 0.94343  0.68847  0.82297  Biso   1.000  O 
  C42      1.0000 0.88653  0.67437  0.74567  Biso   1.000  C 
  C43      1.0000 0.84443  0.67887  0.86067  Biso   1.000  C 
  C44      1.0000 0.79313  0.67187  0.78767  Biso   1.000  C 
  C45      1.0000 0.75723  0.68517  0.93167  Biso   1.000  C 
  O29      1.0000 0.70423  0.67417  0.86717  Biso   1.000  O 
  O30      1.0000 0.77243  0.69807  0.10687  Biso   1.000  O 
  C46      1.0000 0.78013  0.65897  0.58767  Biso   1.000  C 
  O31      1.0000 0.72323  0.64487  0.51037  Biso   1.000  O 
  C47      1.0000 0.82223  0.65447  0.47267  Biso   1.000  C 
  H6       1.0000 0.81315  0.64491  0.31768  Biso   1.000  H 
  C48      1.0000 0.87353  0.66147  0.54567  Biso   1.000  C 
  C49      1.0000 0.90943  0.64817  0.40167  Biso   1.000  C 
  O32      1.0000 0.89423  0.63527  0.22647  Biso   1.000  O 
  O33      1.0000 0.96243  0.65917  0.46617  Biso   1.000  O 
  H7       1.0000 0.85351  0.68843  0.01565  Biso   1.000  H 
  O34      1.0000 0.07837  0.72323  0.48963  Biso   1.000  O 
  C50      1.0000 0.12117  0.78013  0.41233  Biso   1.000  C 
  C51      1.0000 0.16777  0.82223  0.52733  Biso   1.000  C 
  H8       1.0000 0.16825  0.81315  0.68232  Biso   1.000  H 
  C52      1.0000 0.21207  0.87353  0.45433  Biso   1.000  C 
  C53      1.0000 0.26127  0.90943  0.59833  Biso   1.000  C 
  O35      1.0000 0.25897  0.89423  0.77353  Biso   1.000  O 
  Zn17     1.0000 0.31302  0.95147  0.97133  Biso   1.000  Zn
  O36      1.0000 0.32583  0.03007  0.86717  Biso   1.000  O 
  Zn18     1.0000 0.38186  0.02821  0.63800  Biso   1.000  Zn
  O37      1.0000 0.38990  0.97820  0.84370  Biso   1.000  O 
  C54      1.0000 0.44680  0.99230  0.92100  Biso   1.000  C 
  C55      1.0000 0.48890  0.98780  0.80600  Biso   1.000  C 
  H9       1.0000 0.47982  0.97824  0.65101  Biso   1.000  H 
  C56      1.0000 0.54020  0.99480  0.87900  Biso   1.000  C 
  C57      1.0000 0.57610  0.98150  0.73500  Biso   1.000  C 
  O38      1.0000 0.56090  0.96860  0.55980  Biso   1.000  O 
  O39      1.0000 0.62910  0.99250  0.79950  Biso   1.000  O 
  O40      1.0000 0.35513  0.07837  0.51037  Biso   1.000  O 
  C58      1.0000 0.34103  0.12117  0.58767  Biso   1.000  C 
  C59      1.0000 0.34553  0.16777  0.47267  Biso   1.000  C 
  C60      1.0000 0.33853  0.21207  0.54567  Biso   1.000  C 
  C61      1.0000 0.32563  0.21217  0.74567  Biso   1.000  C 
  O41      1.0000 0.31153  0.25497  0.82297  Biso   1.000  O 
  C62      1.0000 0.32113  0.16557  0.86067  Biso   1.000  C 
  C63      1.0000 0.32813  0.12127  0.78767  Biso   1.000  C 
  C64      1.0000 0.31483  0.07207  0.93167  Biso   1.000  C 
  O42      1.0000 0.30193  0.07437  0.10687  Biso   1.000  O 
  H10      1.0000 0.31157  0.16509  0.01565  Biso   1.000  H 
  C65      1.0000 0.35183  0.26127  0.40167  Biso   1.000  C 
  O43      1.0000 0.36473  0.25897  0.22647  Biso   1.000  O 
  O44      1.0000 0.34083  0.30327  0.46617  Biso   1.000  O 
  H11      1.0000 0.35509  0.16825  0.31768  Biso   1.000  H 
  O45      1.0000 0.43910  0.03140  0.44020  Biso   1.000  O 
  O46      1.0000 0.30327  0.96243  0.53383  Biso   1.000  O 
  O47      1.0000 0.07437  0.77243  0.89313  Biso   1.000  O 
  H12      1.0000 0.16509  0.85351  0.98435  Biso   1.000  H 
  O48      1.0000 0.64487  0.92163  0.48963  Biso   1.000  O 
  C66      1.0000 0.65897  0.87883  0.41233  Biso   1.000  C 
  C67      1.0000 0.65447  0.83223  0.52733  Biso   1.000  C 
  H13      1.0000 0.64491  0.83175  0.68232  Biso   1.000  H 
  C68      1.0000 0.66147  0.78793  0.45433  Biso   1.000  C 
  C69      1.0000 0.64817  0.73873  0.59833  Biso   1.000  C 
  O49      1.0000 0.65917  0.69673  0.53383  Biso   1.000  O 
  O50      1.0000 0.63527  0.74103  0.77353  Biso   1.000  O 
  O51      1.0000 0.69807  0.92563  0.89313  Biso   1.000  O 
  H14      1.0000 0.68843  0.83491  0.98435  Biso   1.000  H 
  O52      1.0000 0.58830  0.61010  0.84370  Biso   1.000  O 
  C70      1.0000 0.54550  0.55320  0.92100  Biso   1.000  C 
  C71      1.0000 0.49890  0.51110  0.80600  Biso   1.000  C 
  H15      1.0000 0.49842  0.52018  0.65101  Biso   1.000  H 
  H16      1.0000 0.50158  0.47982  0.34899  Biso   1.000  H 
  O53      1.0000 0.29577  0.32583  0.13283  Biso   1.000  O 
  C72      1.0000 0.24277  0.31483  0.06833  Biso   1.000  C 
  O54      1.0000 0.22757  0.30193  0.89313  Biso   1.000  O 
  H17      1.0000 0.14649  0.31157  0.98435  Biso   1.000  H 
  H18      1.0000 0.02176  0.50158  0.65101  Biso   1.000  H 
