data_image0
_cell_length_a       25.9321
_cell_length_b       25.9321
_cell_length_c       6.84446
_cell_angle_alpha    90
_cell_angle_beta     90
_cell_angle_gamma    120

_symmetry_space_group_name_H-M    "P 1"
_symmetry_int_tables_number       1

loop_
  _symmetry_equiv_pos_as_xyz
  'x, y, z'

loop_
  _atom_site_label
  _atom_site_occupancy
  _atom_site_fract_x
  _atom_site_fract_y
  _atom_site_fract_z
  _atom_site_thermal_displace_type
  _atom_site_B_iso_or_equiv
  _atom_site_type_symbol
  C1       1.0000 0.00980  0.50070  0.80500  Biso   1.000  C 
  C2       1.0000 0.00780  0.45460  0.92400  Biso   1.000  C 
  O1       1.0000 0.02050  0.40940  0.84280  Biso   1.000  O 
  Zn1      1.0000 0.04815  0.36117  0.97053  Biso   1.000  Zn
  Zn2      1.0000 0.97969  0.28519  0.30387  Biso   1.000  Zn
  O2       1.0000 0.05557  0.31283  0.17613  Biso   1.000  O 
  C3       1.0000 0.11347  0.32553  0.25733  Biso   1.000  C 
  C4       1.0000 0.15757  0.32353  0.13833  Biso   1.000  C 
  C5       1.0000 0.20697  0.32803  0.21233  Biso   1.000  C 
  C6       1.0000 0.21987  0.34113  0.40933  Biso   1.000  C 
  O3       1.0000 0.27777  0.35383  0.49053  Biso   1.000  O 
  Zn3      1.0000 0.28519  0.30549  0.69613  Biso   1.000  Zn
  Zn4      1.0000 0.36117  0.31303  0.02947  Biso   1.000  Zn
  O4       1.0000 0.40940  0.38890  0.15720  Biso   1.000  O 
  Zn5      1.0000 0.35364  0.38148  0.36280  Biso   1.000  Zn
  O5       1.0000 0.40730  0.43880  0.55870  Biso   1.000  O 
  C7       1.0000 0.40520  0.42340  0.73400  Biso   1.000  C 
  O6       1.0000 0.36100  0.36860  0.80050  Biso   1.000  O 
  C8       1.0000 0.45440  0.45970  0.87900  Biso   1.000  C 
  C9       1.0000 0.45460  0.44680  0.07600  Biso   1.000  C 
  C10      1.0000 0.50070  0.49090  0.19500  Biso   1.000  C 
  H1       1.0000 0.49901  0.48379  0.35223  Biso   1.000  H 
  C11      1.0000 0.54560  0.54030  0.12100  Biso   1.000  C 
  C12      1.0000 0.59480  0.57660  0.26600  Biso   1.000  C 
  O7       1.0000 0.59270  0.56120  0.44130  Biso   1.000  O 
  Zn6      1.0000 0.64636  0.61852  0.63720  Biso   1.000  Zn
  Zn7      1.0000 0.63883  0.68697  0.97053  Biso   1.000  Zn
  O8       1.0000 0.63900  0.63140  0.19950  Biso   1.000  O 
  Zn8      1.0000 0.71481  0.69451  0.30387  Biso   1.000  Zn
  O9       1.0000 0.68717  0.74273  0.17613  Biso   1.000  O 
  C13      1.0000 0.67447  0.78793  0.25733  Biso   1.000  C 
  C14      1.0000 0.67647  0.83403  0.13833  Biso   1.000  C 
  C15      1.0000 0.67197  0.87893  0.21233  Biso   1.000  C 
  C16      1.0000 0.65887  0.87873  0.40933  Biso   1.000  C 
  O10      1.0000 0.64617  0.92393  0.49053  Biso   1.000  O 
  Zn9      1.0000 0.61852  0.97216  0.36280  Biso   1.000  Zn
  Zn10     1.0000 0.69451  0.97969  0.69613  Biso   1.000  Zn
  O11      1.0000 0.74273  0.05557  0.82387  Biso   1.000  O 
  Zn11     1.0000 0.68697  0.04815  0.02947  Biso   1.000  Zn
  O12      1.0000 0.61110  0.02050  0.15720  Biso   1.000  O 
  C17      1.0000 0.55320  0.00780  0.07600  Biso   1.000  C 
  C18      1.0000 0.50910  0.00980  0.19500  Biso   1.000  C 
  H2       1.0000 0.51621  0.01521  0.35223  Biso   1.000  H 
  C19      1.0000 0.45970  0.00530  0.12100  Biso   1.000  C 
  C20      1.0000 0.42340  0.01820  0.26600  Biso   1.000  C 
  O13      1.0000 0.36860  0.00760  0.19950  Biso   1.000  O 
  Zn12     1.0000 0.30549  0.02031  0.30387  Biso   1.000  Zn
  O14      1.0000 0.25727  0.94443  0.17613  Biso   1.000  O 
  C21      1.0000 0.21207  0.88653  0.25733  Biso   1.000  C 
  C22      1.0000 0.16597  0.84243  0.13833  Biso   1.000  C 
  C23      1.0000 0.12107  0.79303  0.21233  Biso   1.000  C 
  C24      1.0000 0.07187  0.75673  0.06733  Biso   1.000  C 
  O15      1.0000 0.02767  0.70193  0.13383  Biso   1.000  O 
  Zn13     1.0000 0.02784  0.64636  0.36280  Biso   1.000  Zn
  Zn14     1.0000 0.02031  0.71481  0.69613  Biso   1.000  Zn
  Zn15     1.0000 0.95185  0.63883  0.02947  Biso   1.000  Zn
  O16      1.0000 0.97950  0.59060  0.15720  Biso   1.000  O 
  C25      1.0000 0.99220  0.54540  0.07600  Biso   1.000  C 
  C26      1.0000 0.99020  0.49930  0.19500  Biso   1.000  C 
  C27      1.0000 0.99470  0.45440  0.12100  Biso   1.000  C 
  C28      1.0000 0.98180  0.40520  0.26600  Biso   1.000  C 
  O17      1.0000 0.99240  0.36100  0.19950  Biso   1.000  O 
  O18      1.0000 0.96850  0.40730  0.44130  Biso   1.000  O 
  Zn16     1.0000 0.97216  0.35364  0.63720  Biso   1.000  Zn
  O19      1.0000 0.03527  0.34093  0.53283  Biso   1.000  O 
  C29      1.0000 0.09007  0.35153  0.59933  Biso   1.000  C 
  O20      1.0000 0.10547  0.36483  0.77463  Biso   1.000  O 
  C30      1.0000 0.12637  0.33863  0.45433  Biso   1.000  C 
  C31      1.0000 0.17577  0.34313  0.52833  Biso   1.000  C 
  H3       1.0000 0.18287  0.34855  0.68556  Biso   1.000  H 
  O21      1.0000 0.92393  0.27777  0.50947  Biso   1.000  O 
  C32      1.0000 0.87873  0.21987  0.59067  Biso   1.000  C 
  C33      1.0000 0.83263  0.17577  0.47167  Biso   1.000  C 
  C34      1.0000 0.78773  0.12637  0.54567  Biso   1.000  C 
  C35      1.0000 0.73853  0.09007  0.40067  Biso   1.000  C 
  O22      1.0000 0.74063  0.10547  0.22537  Biso   1.000  O 
  O23      1.0000 0.69433  0.03527  0.46717  Biso   1.000  O 
  C36      1.0000 0.78793  0.11347  0.74267  Biso   1.000  C 
  C37      1.0000 0.83403  0.15757  0.86167  Biso   1.000  C 
  C38      1.0000 0.87893  0.20697  0.78767  Biso   1.000  C 
  C39      1.0000 0.92813  0.24327  0.93267  Biso   1.000  C 
  O24      1.0000 0.97233  0.29807  0.86617  Biso   1.000  O 
  O25      1.0000 0.92603  0.22787  0.10797  Biso   1.000  O 
  H4       1.0000 0.83234  0.15046  0.01890  Biso   1.000  H 
  H5       1.0000 0.83433  0.18287  0.31444  Biso   1.000  H 
  H6       1.0000 0.98479  0.50099  0.35223  Biso   1.000  H 
  C40      1.0000 0.00530  0.54560  0.87900  Biso   1.000  C 
  C41      1.0000 0.01820  0.59480  0.73400  Biso   1.000  C 
  O26      1.0000 0.03150  0.59270  0.55870  Biso   1.000  O 
  O27      1.0000 0.00760  0.63900  0.80050  Biso   1.000  O 
  O28      1.0000 0.94443  0.68717  0.82387  Biso   1.000  O 
  C42      1.0000 0.88653  0.67447  0.74267  Biso   1.000  C 
  C43      1.0000 0.84243  0.67647  0.86167  Biso   1.000  C 
  C44      1.0000 0.79303  0.67197  0.78767  Biso   1.000  C 
  C45      1.0000 0.75673  0.68487  0.93267  Biso   1.000  C 
  O29      1.0000 0.70193  0.67427  0.86617  Biso   1.000  O 
  O30      1.0000 0.77213  0.69817  0.10797  Biso   1.000  O 
  C46      1.0000 0.78013  0.65887  0.59067  Biso   1.000  C 
  O31      1.0000 0.72223  0.64617  0.50947  Biso   1.000  O 
  C47      1.0000 0.82423  0.65687  0.47167  Biso   1.000  C 
  H7       1.0000 0.81713  0.65145  0.31444  Biso   1.000  H 
  C48      1.0000 0.87363  0.66137  0.54567  Biso   1.000  C 
  C49      1.0000 0.90993  0.64847  0.40067  Biso   1.000  C 
  O32      1.0000 0.89453  0.63517  0.22537  Biso   1.000  O 
  O33      1.0000 0.96473  0.65907  0.46717  Biso   1.000  O 
  H8       1.0000 0.84954  0.68188  0.01890  Biso   1.000  H 
  O34      1.0000 0.07607  0.72223  0.49053  Biso   1.000  O 
  C50      1.0000 0.12127  0.78013  0.40933  Biso   1.000  C 
  C51      1.0000 0.16737  0.82423  0.52833  Biso   1.000  C 
  H9       1.0000 0.16567  0.81713  0.68556  Biso   1.000  H 
  C52      1.0000 0.21227  0.87363  0.45433  Biso   1.000  C 
  C53      1.0000 0.26147  0.90993  0.59933  Biso   1.000  C 
  O35      1.0000 0.30567  0.96473  0.53283  Biso   1.000  O 
  Zn17     1.0000 0.38148  0.02784  0.63720  Biso   1.000  Zn
  O36      1.0000 0.38890  0.97950  0.84280  Biso   1.000  O 
  Zn18     1.0000 0.31303  0.95185  0.97053  Biso   1.000  Zn
  O37      1.0000 0.32573  0.02767  0.86617  Biso   1.000  O 
  C54      1.0000 0.31513  0.07187  0.93267  Biso   1.000  C 
  O38      1.0000 0.30183  0.07397  0.10797  Biso   1.000  O 
  C55      1.0000 0.32803  0.12107  0.78767  Biso   1.000  C 
  C56      1.0000 0.34113  0.12127  0.59067  Biso   1.000  C 
  O39      1.0000 0.35383  0.07607  0.50947  Biso   1.000  O 
  C57      1.0000 0.34313  0.16737  0.47167  Biso   1.000  C 
  C58      1.0000 0.33863  0.21227  0.54567  Biso   1.000  C 
  C59      1.0000 0.32553  0.21207  0.74267  Biso   1.000  C 
  O40      1.0000 0.31283  0.25727  0.82387  Biso   1.000  O 
  C60      1.0000 0.32353  0.16597  0.86167  Biso   1.000  C 
  H10      1.0000 0.31812  0.16766  0.01890  Biso   1.000  H 
  C61      1.0000 0.35153  0.26147  0.40067  Biso   1.000  C 
  O41      1.0000 0.36483  0.25937  0.22537  Biso   1.000  O 
  O42      1.0000 0.34093  0.30567  0.46717  Biso   1.000  O 
  H11      1.0000 0.34855  0.16567  0.31444  Biso   1.000  H 
  O43      1.0000 0.25937  0.89453  0.77463  Biso   1.000  O 
  C62      1.0000 0.44680  0.99220  0.92400  Biso   1.000  C 
  C63      1.0000 0.49090  0.99020  0.80500  Biso   1.000  C 
  C64      1.0000 0.54030  0.99470  0.87900  Biso   1.000  C 
  C65      1.0000 0.57660  0.98180  0.73400  Biso   1.000  C 
  O44      1.0000 0.56120  0.96850  0.55870  Biso   1.000  O 
  O45      1.0000 0.63140  0.99240  0.80050  Biso   1.000  O 
  H12      1.0000 0.48379  0.98479  0.64777  Biso   1.000  H 
  O46      1.0000 0.43880  0.03150  0.44130  Biso   1.000  O 
  O47      1.0000 0.07397  0.77213  0.89203  Biso   1.000  O 
  H13      1.0000 0.16766  0.84954  0.98110  Biso   1.000  H 
  O48      1.0000 0.67427  0.97233  0.13383  Biso   1.000  O 
  C66      1.0000 0.68487  0.92813  0.06733  Biso   1.000  C 
  O49      1.0000 0.69817  0.92603  0.89203  Biso   1.000  O 
  C67      1.0000 0.65687  0.83263  0.52833  Biso   1.000  C 
  H14      1.0000 0.65145  0.83433  0.68556  Biso   1.000  H 
  C68      1.0000 0.66137  0.78773  0.45433  Biso   1.000  C 
  C69      1.0000 0.64847  0.73853  0.59933  Biso   1.000  C 
  O50      1.0000 0.65907  0.69433  0.53283  Biso   1.000  O 
  O51      1.0000 0.63517  0.74063  0.77463  Biso   1.000  O 
  H15      1.0000 0.68188  0.83234  0.98110  Biso   1.000  H 
  O52      1.0000 0.59060  0.61110  0.84280  Biso   1.000  O 
  C70      1.0000 0.54540  0.55320  0.92400  Biso   1.000  C 
  C71      1.0000 0.49930  0.50910  0.80500  Biso   1.000  C 
  H16      1.0000 0.50099  0.51621  0.64777  Biso   1.000  H 
  O53      1.0000 0.29807  0.32573  0.13383  Biso   1.000  O 
  C72      1.0000 0.24327  0.31513  0.06733  Biso   1.000  C 
  O54      1.0000 0.22787  0.30183  0.89203  Biso   1.000  O 
  H17      1.0000 0.15046  0.31812  0.98110  Biso   1.000  H 
  H18      1.0000 0.01521  0.49901  0.64777  Biso   1.000  H 
