data_image0
_cell_length_a       25.934
_cell_length_b       25.934
_cell_length_c       6.84291
_cell_angle_alpha    90
_cell_angle_beta     90
_cell_angle_gamma    120

_symmetry_space_group_name_H-M    "P 1"
_symmetry_int_tables_number       1

loop_
  _symmetry_equiv_pos_as_xyz
  'x, y, z'

loop_
  _atom_site_label
  _atom_site_occupancy
  _atom_site_fract_x
  _atom_site_fract_y
  _atom_site_fract_z
  _atom_site_thermal_displace_type
  _atom_site_B_iso_or_equiv
  _atom_site_type_symbol
  C1       1.0000 0.00960  0.50070  0.80600  Biso   1.000  C 
  H1       1.0000 0.01481  0.49884  0.64868  Biso   1.000  H 
  C2       1.0000 0.00770  0.45450  0.92500  Biso   1.000  C 
  O1       1.0000 0.02040  0.40910  0.84290  Biso   1.000  O 
  Zn1      1.0000 0.04804  0.36104  0.97043  Biso   1.000  Zn
  O2       1.0000 0.97273  0.29787  0.86617  Biso   1.000  O 
  Zn2      1.0000 0.97229  0.35366  0.63710  Biso   1.000  Zn
  Zn3      1.0000 0.97967  0.28530  0.30377  Biso   1.000  Zn
  O3       1.0000 0.05537  0.31293  0.17623  Biso   1.000  O 
  C3       1.0000 0.11347  0.32563  0.25833  Biso   1.000  C 
  C4       1.0000 0.15777  0.32373  0.13933  Biso   1.000  C 
  C5       1.0000 0.20697  0.32803  0.21233  Biso   1.000  C 
  C6       1.0000 0.21987  0.34103  0.40833  Biso   1.000  C 
  O4       1.0000 0.27797  0.35373  0.49043  Biso   1.000  O 
  Zn4      1.0000 0.28530  0.30562  0.69623  Biso   1.000  Zn
  O5       1.0000 0.31293  0.25757  0.82377  Biso   1.000  O 
  C7       1.0000 0.32563  0.21217  0.74167  Biso   1.000  C 
  C8       1.0000 0.32373  0.16597  0.86067  Biso   1.000  C 
  C9       1.0000 0.32803  0.12107  0.78767  Biso   1.000  C 
  C10      1.0000 0.34103  0.12117  0.59167  Biso   1.000  C 
  O6       1.0000 0.35373  0.07577  0.50957  Biso   1.000  O 
  Zn5      1.0000 0.30562  0.02033  0.30377  Biso   1.000  Zn
  O7       1.0000 0.25757  0.94463  0.17623  Biso   1.000  O 
  Zn6      1.0000 0.31301  0.95196  0.97043  Biso   1.000  Zn
  O8       1.0000 0.38870  0.97960  0.84290  Biso   1.000  O 
  C11      1.0000 0.44680  0.99230  0.92500  Biso   1.000  C 
  C12      1.0000 0.49110  0.99040  0.80600  Biso   1.000  C 
  H2       1.0000 0.48404  0.98519  0.64868  Biso   1.000  H 
  C13      1.0000 0.54030  0.99470  0.87900  Biso   1.000  C 
  C14      1.0000 0.57670  0.98180  0.73300  Biso   1.000  C 
  O9       1.0000 0.56120  0.96840  0.55800  Biso   1.000  O 
  Zn7      1.0000 0.61863  0.97229  0.36290  Biso   1.000  Zn
  Zn8      1.0000 0.69438  0.97967  0.69623  Biso   1.000  Zn
  O10      1.0000 0.74243  0.05537  0.82377  Biso   1.000  O 
  C15      1.0000 0.78783  0.11347  0.74167  Biso   1.000  C 
  C16      1.0000 0.83403  0.15777  0.86067  Biso   1.000  C 
  C17      1.0000 0.87893  0.20697  0.78767  Biso   1.000  C 
  C18      1.0000 0.87883  0.21987  0.59167  Biso   1.000  C 
  O11      1.0000 0.92423  0.27797  0.50957  Biso   1.000  O 
  C19      1.0000 0.83263  0.17557  0.47267  Biso   1.000  C 
  C20      1.0000 0.78773  0.12637  0.54567  Biso   1.000  C 
  C21      1.0000 0.73843  0.08997  0.39967  Biso   1.000  C 
  O12      1.0000 0.69393  0.03547  0.46717  Biso   1.000  O 
  O13      1.0000 0.74053  0.10547  0.22467  Biso   1.000  O 
  Zn9      1.0000 0.68699  0.04804  0.02957  Biso   1.000  Zn
  O14      1.0000 0.67487  0.97273  0.13383  Biso   1.000  O 
  C22      1.0000 0.68487  0.92823  0.06633  Biso   1.000  C 
  O15      1.0000 0.69827  0.92613  0.89133  Biso   1.000  O 
  C23      1.0000 0.67197  0.87893  0.21233  Biso   1.000  C 
  C24      1.0000 0.65897  0.87883  0.40833  Biso   1.000  C 
  O16      1.0000 0.64627  0.92423  0.49043  Biso   1.000  O 
  C25      1.0000 0.65707  0.83263  0.52733  Biso   1.000  C 
  H3       1.0000 0.65186  0.83449  0.68465  Biso   1.000  H 
  C26      1.0000 0.66137  0.78773  0.45433  Biso   1.000  C 
  C27      1.0000 0.64847  0.73843  0.60033  Biso   1.000  C 
  O17      1.0000 0.65847  0.69393  0.53283  Biso   1.000  O 
  Zn10     1.0000 0.64634  0.61863  0.63710  Biso   1.000  Zn
  Zn11     1.0000 0.71470  0.69438  0.30377  Biso   1.000  Zn
  Zn12     1.0000 0.63896  0.68699  0.97043  Biso   1.000  Zn
  O18      1.0000 0.59090  0.61130  0.84290  Biso   1.000  O 
  C28      1.0000 0.54550  0.55320  0.92500  Biso   1.000  C 
  C29      1.0000 0.49930  0.50890  0.80600  Biso   1.000  C 
  C30      1.0000 0.45440  0.45970  0.87900  Biso   1.000  C 
  C31      1.0000 0.40510  0.42330  0.73300  Biso   1.000  C 
  O19      1.0000 0.36060  0.36880  0.80050  Biso   1.000  O 
  Zn13     1.0000 0.36104  0.31301  0.02957  Biso   1.000  Zn
  O20      1.0000 0.40910  0.38870  0.15710  Biso   1.000  O 
  Zn14     1.0000 0.35366  0.38137  0.36290  Biso   1.000  Zn
  O21      1.0000 0.40720  0.43880  0.55800  Biso   1.000  O 
  O22      1.0000 0.29787  0.32513  0.13383  Biso   1.000  O 
  C32      1.0000 0.24337  0.31513  0.06633  Biso   1.000  C 
  O23      1.0000 0.22787  0.30173  0.89133  Biso   1.000  O 
  O24      1.0000 0.34153  0.30607  0.46717  Biso   1.000  O 
  C33      1.0000 0.35153  0.26157  0.39967  Biso   1.000  C 
  O25      1.0000 0.36493  0.25947  0.22467  Biso   1.000  O 
  C34      1.0000 0.33863  0.21227  0.54567  Biso   1.000  C 
  C35      1.0000 0.34293  0.16737  0.47267  Biso   1.000  C 
  H4       1.0000 0.34814  0.16551  0.31535  Biso   1.000  H 
  C36      1.0000 0.45450  0.44680  0.07500  Biso   1.000  C 
  C37      1.0000 0.50070  0.49110  0.19400  Biso   1.000  C 
  H5       1.0000 0.49885  0.48404  0.35132  Biso   1.000  H 
  C38      1.0000 0.54560  0.54030  0.12100  Biso   1.000  C 
  C39      1.0000 0.59490  0.57670  0.26700  Biso   1.000  C 
  O26      1.0000 0.59280  0.56120  0.44200  Biso   1.000  O 
  O27      1.0000 0.63940  0.63120  0.19950  Biso   1.000  O 
  H6       1.0000 0.50116  0.51596  0.64868  Biso   1.000  H 
  O28      1.0000 0.68707  0.74243  0.17623  Biso   1.000  O 
  C40      1.0000 0.67437  0.78783  0.25833  Biso   1.000  C 
  C41      1.0000 0.67627  0.83403  0.13933  Biso   1.000  C 
  H7       1.0000 0.68147  0.83218  0.98201  Biso   1.000  H 
  O29      1.0000 0.63507  0.74053  0.77533  Biso   1.000  O 
  O30      1.0000 0.70213  0.67487  0.86617  Biso   1.000  O 
  C42      1.0000 0.75663  0.68487  0.93367  Biso   1.000  C 
  C43      1.0000 0.79303  0.67197  0.78767  Biso   1.000  C 
  C44      1.0000 0.78013  0.65897  0.59167  Biso   1.000  C 
  O31      1.0000 0.72203  0.64627  0.50957  Biso   1.000  O 
  C45      1.0000 0.82443  0.65707  0.47267  Biso   1.000  C 
  H8       1.0000 0.81737  0.65186  0.31535  Biso   1.000  H 
  C46      1.0000 0.87363  0.66137  0.54567  Biso   1.000  C 
  C47      1.0000 0.91003  0.64847  0.39967  Biso   1.000  C 
  O32      1.0000 0.89453  0.63507  0.22467  Biso   1.000  O 
  Zn15     1.0000 0.95196  0.63896  0.02957  Biso   1.000  Zn
  O33      1.0000 0.00820  0.63940  0.80050  Biso   1.000  O 
  Zn16     1.0000 0.02033  0.71470  0.69623  Biso   1.000  Zn
  O34      1.0000 0.96453  0.65847  0.46717  Biso   1.000  O 
  Zn17     1.0000 0.02771  0.64634  0.36290  Biso   1.000  Zn
  O35      1.0000 0.97960  0.59090  0.15710  Biso   1.000  O 
  C48      1.0000 0.99230  0.54550  0.07500  Biso   1.000  C 
  C49      1.0000 0.00530  0.54560  0.87900  Biso   1.000  C 
  C50      1.0000 0.01820  0.59490  0.73300  Biso   1.000  C 
  O36      1.0000 0.03160  0.59280  0.55800  Biso   1.000  O 
  C51      1.0000 0.99040  0.49930  0.19400  Biso   1.000  C 
  C52      1.0000 0.99470  0.45440  0.12100  Biso   1.000  C 
  C53      1.0000 0.98180  0.40510  0.26700  Biso   1.000  C 
  O37      1.0000 0.99180  0.36060  0.19950  Biso   1.000  O 
  O38      1.0000 0.96840  0.40720  0.44200  Biso   1.000  O 
  H9       1.0000 0.98519  0.50116  0.35132  Biso   1.000  H 
  O39      1.0000 0.07577  0.72203  0.49043  Biso   1.000  O 
  C54      1.0000 0.12117  0.78013  0.40833  Biso   1.000  C 
  C55      1.0000 0.16737  0.82443  0.52733  Biso   1.000  C 
  H10      1.0000 0.16551  0.81737  0.68465  Biso   1.000  H 
  C56      1.0000 0.21227  0.87363  0.45433  Biso   1.000  C 
  C57      1.0000 0.26157  0.91003  0.60033  Biso   1.000  C 
  O40      1.0000 0.25947  0.89453  0.77533  Biso   1.000  O 
  O41      1.0000 0.30607  0.96453  0.53283  Biso   1.000  O 
  Zn18     1.0000 0.38137  0.02771  0.63710  Biso   1.000  Zn
  O42      1.0000 0.43880  0.03160  0.44200  Biso   1.000  O 
  C58      1.0000 0.42330  0.01820  0.26700  Biso   1.000  C 
  O43      1.0000 0.36880  0.00820  0.19950  Biso   1.000  O 
  C59      1.0000 0.45970  0.00530  0.12100  Biso   1.000  C 
  C60      1.0000 0.50890  0.00960  0.19400  Biso   1.000  C 
  C61      1.0000 0.55320  0.00770  0.07500  Biso   1.000  C 
  O44      1.0000 0.61130  0.02040  0.15710  Biso   1.000  O 
  H11      1.0000 0.51596  0.01481  0.35132  Biso   1.000  H 
  O45      1.0000 0.32513  0.02727  0.86617  Biso   1.000  O 
  C62      1.0000 0.31513  0.07177  0.93367  Biso   1.000  C 
  O46      1.0000 0.30173  0.07387  0.10867  Biso   1.000  O 
  C63      1.0000 0.21217  0.88653  0.25833  Biso   1.000  C 
  C64      1.0000 0.16597  0.84223  0.13933  Biso   1.000  C 
  C65      1.0000 0.12107  0.79303  0.21233  Biso   1.000  C 
  C66      1.0000 0.07177  0.75663  0.06633  Biso   1.000  C 
  O47      1.0000 0.02727  0.70213  0.13383  Biso   1.000  O 
  O48      1.0000 0.07387  0.77213  0.89133  Biso   1.000  O 
  H12      1.0000 0.16782  0.84929  0.98201  Biso   1.000  H 
  O49      1.0000 0.94463  0.68707  0.82377  Biso   1.000  O 
  C67      1.0000 0.88653  0.67437  0.74167  Biso   1.000  C 
  C68      1.0000 0.84223  0.67627  0.86067  Biso   1.000  C 
  H13      1.0000 0.84929  0.68147  0.01799  Biso   1.000  H 
  O50      1.0000 0.77213  0.69827  0.10867  Biso   1.000  O 
  O51      1.0000 0.63120  0.99180  0.80050  Biso   1.000  O 
  H14      1.0000 0.83449  0.18263  0.31535  Biso   1.000  H 
  C69      1.0000 0.92823  0.24337  0.93367  Biso   1.000  C 
  O52      1.0000 0.92613  0.22787  0.10867  Biso   1.000  O 
  H15      1.0000 0.83218  0.15071  0.01799  Biso   1.000  H 
  H16      1.0000 0.31853  0.16782  0.01799  Biso   1.000  H 
  C70      1.0000 0.17557  0.34293  0.52733  Biso   1.000  C 
  C71      1.0000 0.12637  0.33863  0.45433  Biso   1.000  C 
  C72      1.0000 0.08997  0.35153  0.60033  Biso   1.000  C 
  O53      1.0000 0.03547  0.34153  0.53283  Biso   1.000  O 
  O54      1.0000 0.10547  0.36493  0.77533  Biso   1.000  O 
  H17      1.0000 0.18263  0.34814  0.68465  Biso   1.000  H 
  H18      1.0000 0.15071  0.31853  0.98201  Biso   1.000  H 
