data_image0
_cell_length_a       25.9388
_cell_length_b       25.9388
_cell_length_c       6.83843
_cell_angle_alpha    90
_cell_angle_beta     90
_cell_angle_gamma    120

_symmetry_space_group_name_H-M    "P 1"
_symmetry_int_tables_number       1

loop_
  _symmetry_equiv_pos_as_xyz
  'x, y, z'

loop_
  _atom_site_label
  _atom_site_occupancy
  _atom_site_fract_x
  _atom_site_fract_y
  _atom_site_fract_z
  _atom_site_thermal_displace_type
  _atom_site_B_iso_or_equiv
  _atom_site_type_symbol
  C1       1.0000 0.00960  0.50060  0.80600  Biso   1.000  C 
  C2       1.0000 0.00760  0.45440  0.92500  Biso   1.000  C 
  O1       1.0000 0.02060  0.40990  0.84450  Biso   1.000  O 
  Zn1      1.0000 0.04776  0.36083  0.97013  Biso   1.000  Zn
  Zn2      1.0000 0.97974  0.28558  0.30347  Biso   1.000  Zn
  O2       1.0000 0.03457  0.33973  0.53493  Biso   1.000  O 
  C3       1.0000 0.08987  0.35163  0.60033  Biso   1.000  C 
  O3       1.0000 0.10567  0.36543  0.77573  Biso   1.000  O 
  C4       1.0000 0.12627  0.33863  0.45333  Biso   1.000  C 
  C5       1.0000 0.11347  0.32573  0.25833  Biso   1.000  C 
  O4       1.0000 0.05597  0.31273  0.17783  Biso   1.000  O 
  C6       1.0000 0.15767  0.32373  0.13933  Biso   1.000  C 
  C7       1.0000 0.20707  0.32803  0.21333  Biso   1.000  C 
  C8       1.0000 0.21987  0.34093  0.40833  Biso   1.000  C 
  O5       1.0000 0.27737  0.35393  0.48883  Biso   1.000  O 
  Zn3      1.0000 0.28558  0.30583  0.69653  Biso   1.000  Zn
  Zn4      1.0000 0.36083  0.31308  0.02987  Biso   1.000  Zn
  O6       1.0000 0.40990  0.38930  0.15550  Biso   1.000  O 
  Zn5      1.0000 0.35359  0.38109  0.36320  Biso   1.000  Zn
  O7       1.0000 0.40690  0.43900  0.55760  Biso   1.000  O 
  C9       1.0000 0.40490  0.42320  0.73300  Biso   1.000  C 
  O8       1.0000 0.36150  0.36790  0.79840  Biso   1.000  O 
  C10      1.0000 0.45430  0.45960  0.88000  Biso   1.000  C 
  C11      1.0000 0.45440  0.44680  0.07500  Biso   1.000  C 
  C12      1.0000 0.50060  0.49100  0.19400  Biso   1.000  C 
  H1       1.0000 0.49883  0.48398  0.35143  Biso   1.000  H 
  C13      1.0000 0.54570  0.54040  0.12000  Biso   1.000  C 
  C14      1.0000 0.59510  0.57680  0.26700  Biso   1.000  C 
  O9       1.0000 0.59310  0.56100  0.44240  Biso   1.000  O 
  Zn6      1.0000 0.64641  0.61891  0.63680  Biso   1.000  Zn
  Zn7      1.0000 0.63917  0.68692  0.97013  Biso   1.000  Zn
  O10      1.0000 0.63850  0.63210  0.20160  Biso   1.000  O 
  Zn8      1.0000 0.71442  0.69417  0.30347  Biso   1.000  Zn
  O11      1.0000 0.68727  0.74323  0.17783  Biso   1.000  O 
  C15      1.0000 0.67427  0.78773  0.25833  Biso   1.000  C 
  C16      1.0000 0.67627  0.83393  0.13933  Biso   1.000  C 
  C17      1.0000 0.67197  0.87903  0.21333  Biso   1.000  C 
  C18      1.0000 0.65907  0.87893  0.40833  Biso   1.000  C 
  O12      1.0000 0.64607  0.92343  0.48883  Biso   1.000  O 
  Zn9      1.0000 0.61891  0.97250  0.36320  Biso   1.000  Zn
  Zn10     1.0000 0.69417  0.97974  0.69653  Biso   1.000  Zn
  O13      1.0000 0.69483  0.03457  0.46507  Biso   1.000  O 
  C19      1.0000 0.73823  0.08987  0.39967  Biso   1.000  C 
  O14      1.0000 0.74023  0.10567  0.22427  Biso   1.000  O 
  Zn11     1.0000 0.68692  0.04776  0.02987  Biso   1.000  Zn
  O15      1.0000 0.61070  0.02060  0.15550  Biso   1.000  O 
  C20      1.0000 0.55320  0.00760  0.07500  Biso   1.000  C 
  C21      1.0000 0.50900  0.00960  0.19400  Biso   1.000  C 
  C22      1.0000 0.45960  0.00530  0.12000  Biso   1.000  C 
  C23      1.0000 0.42320  0.01830  0.26700  Biso   1.000  C 
  O16      1.0000 0.36790  0.00640  0.20160  Biso   1.000  O 
  Zn12     1.0000 0.30583  0.02026  0.30347  Biso   1.000  Zn
  O17      1.0000 0.25677  0.94403  0.17783  Biso   1.000  O 
  C24      1.0000 0.21227  0.88653  0.25833  Biso   1.000  C 
  C25      1.0000 0.16607  0.84233  0.13933  Biso   1.000  C 
  C26      1.0000 0.12097  0.79293  0.21333  Biso   1.000  C 
  C27      1.0000 0.12107  0.78013  0.40833  Biso   1.000  C 
  O18      1.0000 0.07657  0.72263  0.48883  Biso   1.000  O 
  Zn13     1.0000 0.02026  0.71442  0.69653  Biso   1.000  Zn
  Zn14     1.0000 0.95224  0.63917  0.02987  Biso   1.000  Zn
  O19      1.0000 0.02817  0.70123  0.13173  Biso   1.000  O 
  Zn15     1.0000 0.02750  0.64641  0.36320  Biso   1.000  Zn
  O20      1.0000 0.97940  0.59010  0.15550  Biso   1.000  O 
  C28      1.0000 0.99240  0.54560  0.07500  Biso   1.000  C 
  C29      1.0000 0.99040  0.49940  0.19400  Biso   1.000  C 
  H2       1.0000 0.98515  0.50117  0.35143  Biso   1.000  H 
  C30      1.0000 0.99470  0.45430  0.12000  Biso   1.000  C 
  C31      1.0000 0.98170  0.40490  0.26700  Biso   1.000  C 
  O21      1.0000 0.99360  0.36150  0.20160  Biso   1.000  O 
  O22      1.0000 0.96790  0.40690  0.44240  Biso   1.000  O 
  Zn16     1.0000 0.97250  0.35359  0.63680  Biso   1.000  Zn
  O23      1.0000 0.92343  0.27737  0.51117  Biso   1.000  O 
  C32      1.0000 0.87893  0.21987  0.59167  Biso   1.000  C 
  C33      1.0000 0.83273  0.17567  0.47267  Biso   1.000  C 
  C34      1.0000 0.78763  0.12627  0.54667  Biso   1.000  C 
  C35      1.0000 0.78773  0.11347  0.74167  Biso   1.000  C 
  O24      1.0000 0.74323  0.05597  0.82217  Biso   1.000  O 
  C36      1.0000 0.83393  0.15767  0.86067  Biso   1.000  C 
  C37      1.0000 0.87903  0.20707  0.78667  Biso   1.000  C 
  C38      1.0000 0.92843  0.24347  0.93367  Biso   1.000  C 
  O25      1.0000 0.97183  0.29877  0.86827  Biso   1.000  O 
  O26      1.0000 0.92643  0.22767  0.10907  Biso   1.000  O 
  H3       1.0000 0.83216  0.15064  0.01810  Biso   1.000  H 
  H4       1.0000 0.83451  0.18269  0.31524  Biso   1.000  H 
  C39      1.0000 0.00530  0.54570  0.88000  Biso   1.000  C 
  C40      1.0000 0.01830  0.59510  0.73300  Biso   1.000  C 
  O27      1.0000 0.03210  0.59310  0.55760  Biso   1.000  O 
  O28      1.0000 0.00640  0.63850  0.79840  Biso   1.000  O 
  O29      1.0000 0.96543  0.66027  0.46507  Biso   1.000  O 
  C41      1.0000 0.91013  0.64837  0.39967  Biso   1.000  C 
  O30      1.0000 0.89433  0.63457  0.22427  Biso   1.000  O 
  C42      1.0000 0.87373  0.66137  0.54667  Biso   1.000  C 
  C43      1.0000 0.88653  0.67427  0.74167  Biso   1.000  C 
  O31      1.0000 0.94403  0.68727  0.82217  Biso   1.000  O 
  C44      1.0000 0.84233  0.67627  0.86067  Biso   1.000  C 
  C45      1.0000 0.79293  0.67197  0.78667  Biso   1.000  C 
  C46      1.0000 0.75653  0.68497  0.93367  Biso   1.000  C 
  O32      1.0000 0.70123  0.67307  0.86827  Biso   1.000  O 
  O33      1.0000 0.77233  0.69877  0.10907  Biso   1.000  O 
  C47      1.0000 0.78013  0.65907  0.59167  Biso   1.000  C 
  O34      1.0000 0.72263  0.64607  0.51117  Biso   1.000  O 
  C48      1.0000 0.82433  0.65707  0.47267  Biso   1.000  C 
  H5       1.0000 0.81731  0.65182  0.31524  Biso   1.000  H 
  H6       1.0000 0.84936  0.68152  0.01810  Biso   1.000  H 
  C49      1.0000 0.07157  0.75653  0.06633  Biso   1.000  C 
  O35      1.0000 0.07357  0.77233  0.89093  Biso   1.000  O 
  C50      1.0000 0.16727  0.82433  0.52733  Biso   1.000  C 
  H7       1.0000 0.16549  0.81731  0.68476  Biso   1.000  H 
  C51      1.0000 0.21237  0.87373  0.45333  Biso   1.000  C 
  C52      1.0000 0.26177  0.91013  0.60033  Biso   1.000  C 
  O36      1.0000 0.25977  0.89433  0.77573  Biso   1.000  O 
  Zn17     1.0000 0.31308  0.95224  0.97013  Biso   1.000  Zn
  O37      1.0000 0.32693  0.02817  0.86827  Biso   1.000  O 
  Zn18     1.0000 0.38109  0.02750  0.63680  Biso   1.000  Zn
  O38      1.0000 0.38930  0.97940  0.84450  Biso   1.000  O 
  C53      1.0000 0.44680  0.99240  0.92500  Biso   1.000  C 
  C54      1.0000 0.49100  0.99040  0.80600  Biso   1.000  C 
  C55      1.0000 0.54040  0.99470  0.88000  Biso   1.000  C 
  C56      1.0000 0.57680  0.98170  0.73300  Biso   1.000  C 
  O39      1.0000 0.56100  0.96790  0.55760  Biso   1.000  O 
  O40      1.0000 0.63210  0.99360  0.79840  Biso   1.000  O 
  H8       1.0000 0.48398  0.98515  0.64857  Biso   1.000  H 
  O41      1.0000 0.35393  0.07657  0.51117  Biso   1.000  O 
  C57      1.0000 0.34093  0.12107  0.59167  Biso   1.000  C 
  C58      1.0000 0.34293  0.16727  0.47267  Biso   1.000  C 
  C59      1.0000 0.33863  0.21237  0.54667  Biso   1.000  C 
  C60      1.0000 0.35163  0.26177  0.39967  Biso   1.000  C 
  O42      1.0000 0.33973  0.30517  0.46507  Biso   1.000  O 
  O43      1.0000 0.36543  0.25977  0.22427  Biso   1.000  O 
  C61      1.0000 0.32573  0.21227  0.74167  Biso   1.000  C 
  O44      1.0000 0.31273  0.25677  0.82217  Biso   1.000  O 
  C62      1.0000 0.32373  0.16607  0.86067  Biso   1.000  C 
  C63      1.0000 0.32803  0.12097  0.78667  Biso   1.000  C 
  C64      1.0000 0.31503  0.07157  0.93367  Biso   1.000  C 
  O45      1.0000 0.30123  0.07357  0.10907  Biso   1.000  O 
  H9       1.0000 0.31848  0.16784  0.01810  Biso   1.000  H 
  H10      1.0000 0.34818  0.16549  0.31524  Biso   1.000  H 
  O46      1.0000 0.43900  0.03210  0.44240  Biso   1.000  O 
  O47      1.0000 0.30517  0.96543  0.53493  Biso   1.000  O 
  H11      1.0000 0.16784  0.84936  0.98190  Biso   1.000  H 
  H12      1.0000 0.51602  0.01485  0.35143  Biso   1.000  H 
  O48      1.0000 0.67307  0.97183  0.13173  Biso   1.000  O 
  C65      1.0000 0.68497  0.92843  0.06633  Biso   1.000  C 
  O49      1.0000 0.69877  0.92643  0.89093  Biso   1.000  O 
  C66      1.0000 0.65707  0.83273  0.52733  Biso   1.000  C 
  H13      1.0000 0.65182  0.83451  0.68476  Biso   1.000  H 
  C67      1.0000 0.66137  0.78763  0.45333  Biso   1.000  C 
  C68      1.0000 0.64837  0.73823  0.60033  Biso   1.000  C 
  O50      1.0000 0.66027  0.69483  0.53493  Biso   1.000  O 
  O51      1.0000 0.63457  0.74023  0.77573  Biso   1.000  O 
  H14      1.0000 0.68152  0.83216  0.98190  Biso   1.000  H 
  O52      1.0000 0.59010  0.61070  0.84450  Biso   1.000  O 
  C69      1.0000 0.54560  0.55320  0.92500  Biso   1.000  C 
  C70      1.0000 0.49940  0.50900  0.80600  Biso   1.000  C 
  H15      1.0000 0.50117  0.51602  0.64857  Biso   1.000  H 
  O53      1.0000 0.29877  0.32693  0.13173  Biso   1.000  O 
  C71      1.0000 0.24347  0.31503  0.06633  Biso   1.000  C 
  O54      1.0000 0.22767  0.30123  0.89093  Biso   1.000  O 
  C72      1.0000 0.17567  0.34293  0.52733  Biso   1.000  C 
  H16      1.0000 0.18269  0.34818  0.68476  Biso   1.000  H 
  H17      1.0000 0.15064  0.31848  0.98190  Biso   1.000  H 
  H18      1.0000 0.01485  0.49883  0.64857  Biso   1.000  H 
