data_image0
_cell_length_a       25.7051
_cell_length_b       25.7051
_cell_length_c       6.82924
_cell_angle_alpha    90
_cell_angle_beta     90
_cell_angle_gamma    120

_symmetry_space_group_name_H-M    "P 1"
_symmetry_int_tables_number       1

loop_
  _symmetry_equiv_pos_as_xyz
  'x, y, z'

loop_
  _atom_site_label
  _atom_site_occupancy
  _atom_site_fract_x
  _atom_site_fract_y
  _atom_site_fract_z
  _atom_site_thermal_displace_type
  _atom_site_B_iso_or_equiv
  _atom_site_type_symbol
  C1       1.0000 0.01550  0.50390  0.80640  Biso   1.000  C 
  C2       1.0000 0.00510  0.54540  0.87860  Biso   1.000  C 
  C3       1.0000 0.01310  0.59390  0.72970  Biso   1.000  C 
  O1       1.0000 0.00630  0.63850  0.80200  Biso   1.000  O 
  Ni1      1.0000 0.01830  0.71455  0.68673  Biso   1.000  Ni
  O2       1.0000 0.01997  0.79763  0.56173  Biso   1.000  O 
  C4       1.0000 0.05027  0.84613  0.53273  Biso   1.000  C 
  O3       1.0000 0.08047  0.89453  0.50383  Biso   1.000  O 
  O4       1.0000 0.96553  0.66037  0.46867  Biso   1.000  O 
  C5       1.0000 0.91413  0.65357  0.39637  Biso   1.000  C 
  O5       1.0000 0.89813  0.63717  0.22217  Biso   1.000  O 
  Ni2      1.0000 0.95211  0.63708  0.02007  Biso   1.000  Ni
  O6       1.0000 0.86903  0.55567  0.89507  Biso   1.000  O 
  C6       1.0000 0.82053  0.53747  0.86607  Biso   1.000  C 
  O7       1.0000 0.77213  0.51927  0.83717  Biso   1.000  O 
  O8       1.0000 0.94173  0.69027  0.82747  Biso   1.000  O 
  C7       1.0000 0.88783  0.67857  0.74827  Biso   1.000  C 
  C8       1.0000 0.84493  0.68217  0.86027  Biso   1.000  C 
  C9       1.0000 0.79303  0.67177  0.78807  Biso   1.000  C 
  C10      1.0000 0.75253  0.67977  0.93697  Biso   1.000  C 
  O9       1.0000 0.70113  0.67297  0.86467  Biso   1.000  O 
  Ni3      1.0000 0.64837  0.61878  0.64660  Biso   1.000  Ni
  O10      1.0000 0.64670  0.53570  0.77160  Biso   1.000  O 
  C11      1.0000 0.61640  0.48720  0.80060  Biso   1.000  C 
  O11      1.0000 0.58620  0.43880  0.82950  Biso   1.000  O 
  Ni4      1.0000 0.63708  0.68496  0.97993  Biso   1.000  Ni
  O12      1.0000 0.58480  0.60840  0.83920  Biso   1.000  O 
  C12      1.0000 0.54260  0.55450  0.91840  Biso   1.000  C 
  C13      1.0000 0.49610  0.51160  0.80640  Biso   1.000  C 
  C14      1.0000 0.45460  0.45970  0.87860  Biso   1.000  C 
  C15      1.0000 0.40610  0.41920  0.72970  Biso   1.000  C 
  O13      1.0000 0.40570  0.43520  0.55550  Biso   1.000  O 
  Ni5      1.0000 0.35163  0.38122  0.35340  Biso   1.000  Ni
  Ni6      1.0000 0.28545  0.30374  0.68673  Biso   1.000  Ni
  O14      1.0000 0.20237  0.22233  0.56173  Biso   1.000  O 
  C16      1.0000 0.15387  0.20413  0.53273  Biso   1.000  C 
  O15      1.0000 0.10547  0.18593  0.50383  Biso   1.000  O 
  O16      1.0000 0.30973  0.25147  0.82747  Biso   1.000  O 
  C17      1.0000 0.32143  0.20927  0.74827  Biso   1.000  C 
  C18      1.0000 0.31783  0.16277  0.86027  Biso   1.000  C 
  C19      1.0000 0.32823  0.12127  0.78807  Biso   1.000  C 
  C20      1.0000 0.34523  0.12407  0.58507  Biso   1.000  C 
  O17      1.0000 0.35693  0.08187  0.50587  Biso   1.000  O 
  Ni7      1.0000 0.30374  0.01830  0.31327  Biso   1.000  Ni
  O18      1.0000 0.22233  0.01997  0.43827  Biso   1.000  O 
  C21      1.0000 0.20413  0.05027  0.46727  Biso   1.000  C 
  O19      1.0000 0.18593  0.08047  0.49617  Biso   1.000  O 
  O20      1.0000 0.25147  0.94173  0.17253  Biso   1.000  O 
  Ni8      1.0000 0.31504  0.95211  0.97993  Biso   1.000  Ni
  O21      1.0000 0.39160  0.97640  0.83920  Biso   1.000  O 
  C22      1.0000 0.44550  0.98810  0.91840  Biso   1.000  C 
  C23      1.0000 0.48840  0.98450  0.80640  Biso   1.000  C 
  H1       1.0000 0.47893  0.97259  0.65230  Biso   1.000  H 
  C24      1.0000 0.54030  0.99490  0.87860  Biso   1.000  C 
  C25      1.0000 0.58080  0.98690  0.72970  Biso   1.000  C 
  O22      1.0000 0.56480  0.97050  0.55550  Biso   1.000  O 
  Ni9      1.0000 0.61878  0.97041  0.35340  Biso   1.000  Ni
  O23      1.0000 0.53570  0.88900  0.22840  Biso   1.000  O 
  C26      1.0000 0.48720  0.87080  0.19940  Biso   1.000  C 
  O24      1.0000 0.43880  0.85260  0.17050  Biso   1.000  O 
  Ni10     1.0000 0.69626  0.98170  0.68673  Biso   1.000  Ni
  O25      1.0000 0.77767  0.98003  0.56173  Biso   1.000  O 
  C27      1.0000 0.79587  0.94973  0.53273  Biso   1.000  C 
  O26      1.0000 0.81407  0.91953  0.50383  Biso   1.000  O 
  O27      1.0000 0.74853  0.05827  0.82747  Biso   1.000  O 
  C28      1.0000 0.79073  0.11217  0.74827  Biso   1.000  C 
  C29      1.0000 0.83723  0.15507  0.86027  Biso   1.000  C 
  C30      1.0000 0.87873  0.20697  0.78807  Biso   1.000  C 
  C31      1.0000 0.87593  0.22117  0.58507  Biso   1.000  C 
  O28      1.0000 0.91813  0.27507  0.50587  Biso   1.000  O 
  Ni11     1.0000 0.97041  0.35163  0.64660  Biso   1.000  Ni
  O29      1.0000 0.88900  0.35330  0.77160  Biso   1.000  O 
  C32      1.0000 0.87080  0.38360  0.80060  Biso   1.000  C 
  O30      1.0000 0.85260  0.41380  0.82950  Biso   1.000  O 
  Ni12     1.0000 0.98170  0.28545  0.31327  Biso   1.000  Ni
  O31      1.0000 0.98003  0.20237  0.43827  Biso   1.000  O 
  C33      1.0000 0.94973  0.15387  0.46727  Biso   1.000  C 
  O32      1.0000 0.91953  0.10547  0.49617  Biso   1.000  O 
  Ni13     1.0000 0.04789  0.36292  0.97993  Biso   1.000  Ni
  O33      1.0000 0.97183  0.29887  0.86467  Biso   1.000  O 
  C34      1.0000 0.92723  0.24747  0.93697  Biso   1.000  C 
  O34      1.0000 0.92763  0.23147  0.11117  Biso   1.000  O 
  O35      1.0000 0.02360  0.41520  0.83920  Biso   1.000  O 
  C35      1.0000 0.01190  0.45740  0.91840  Biso   1.000  C 
  C36      1.0000 0.99490  0.45460  0.12140  Biso   1.000  C 
  C37      1.0000 0.98690  0.40610  0.27030  Biso   1.000  C 
  O36      1.0000 0.99370  0.36150  0.19800  Biso   1.000  O 
  O37      1.0000 0.97050  0.40570  0.44450  Biso   1.000  O 
  C38      1.0000 0.98450  0.49610  0.19360  Biso   1.000  C 
  C39      1.0000 0.98810  0.54260  0.08160  Biso   1.000  C 
  O38      1.0000 0.97640  0.58480  0.16080  Biso   1.000  O 
  Ni14     1.0000 0.02959  0.64837  0.35340  Biso   1.000  Ni
  O39      1.0000 0.11100  0.64670  0.22840  Biso   1.000  O 
  C40      1.0000 0.12920  0.61640  0.19940  Biso   1.000  C 
  O40      1.0000 0.14740  0.58620  0.17050  Biso   1.000  O 
  O41      1.0000 0.08187  0.72493  0.49413  Biso   1.000  O 
  C41      1.0000 0.12407  0.77883  0.41493  Biso   1.000  C 
  C42      1.0000 0.17057  0.82173  0.52693  Biso   1.000  C 
  H2       1.0000 0.17301  0.81226  0.68103  Biso   1.000  H 
  C43      1.0000 0.21207  0.87363  0.45473  Biso   1.000  C 
  C44      1.0000 0.20927  0.88783  0.25173  Biso   1.000  C 
  C45      1.0000 0.16277  0.84493  0.13973  Biso   1.000  C 
  C46      1.0000 0.12127  0.79303  0.21193  Biso   1.000  C 
  C47      1.0000 0.07277  0.75253  0.06303  Biso   1.000  C 
  O42      1.0000 0.02817  0.70113  0.13533  Biso   1.000  O 
  O43      1.0000 0.07237  0.76853  0.88883  Biso   1.000  O 
  H3       1.0000 0.16033  0.85440  0.98563  Biso   1.000  H 
  C48      1.0000 0.26057  0.91413  0.60363  Biso   1.000  C 
  O44      1.0000 0.26097  0.89813  0.77783  Biso   1.000  O 
  O45      1.0000 0.30517  0.96553  0.53133  Biso   1.000  O 
  Ni15     1.0000 0.38122  0.02959  0.64660  Biso   1.000  Ni
  O46      1.0000 0.46430  0.11100  0.77160  Biso   1.000  O 
  C49      1.0000 0.51280  0.12920  0.80060  Biso   1.000  C 
  O47      1.0000 0.56120  0.14740  0.82950  Biso   1.000  O 
  O48      1.0000 0.43520  0.02950  0.44450  Biso   1.000  O 
  C50      1.0000 0.41920  0.01310  0.27030  Biso   1.000  C 
  O49      1.0000 0.36780  0.00630  0.19800  Biso   1.000  O 
  C51      1.0000 0.45970  0.00510  0.12140  Biso   1.000  C 
  C52      1.0000 0.51160  0.01550  0.19360  Biso   1.000  C 
  H4       1.0000 0.52107  0.02741  0.34770  Biso   1.000  H 
  C53      1.0000 0.55450  0.01190  0.08160  Biso   1.000  C 
  O50      1.0000 0.60840  0.02360  0.16080  Biso   1.000  O 
  Ni16     1.0000 0.68496  0.04789  0.02007  Biso   1.000  Ni
  O51      1.0000 0.67297  0.97183  0.13533  Biso   1.000  O 
  C54      1.0000 0.67977  0.92723  0.06303  Biso   1.000  C 
  O52      1.0000 0.69617  0.92763  0.88883  Biso   1.000  O 
  C55      1.0000 0.67177  0.87873  0.21193  Biso   1.000  C 
  C56      1.0000 0.65477  0.87593  0.41493  Biso   1.000  C 
  O53      1.0000 0.64307  0.91813  0.49413  Biso   1.000  O 
  C57      1.0000 0.65117  0.82943  0.52693  Biso   1.000  C 
  H5       1.0000 0.63926  0.82699  0.68103  Biso   1.000  H 
  C58      1.0000 0.66157  0.78793  0.45473  Biso   1.000  C 
  C59      1.0000 0.65357  0.73943  0.60363  Biso   1.000  C 
  O54      1.0000 0.63717  0.73903  0.77783  Biso   1.000  O 
  O55      1.0000 0.66037  0.69483  0.53133  Biso   1.000  O 
  Ni17     1.0000 0.71455  0.69626  0.31327  Biso   1.000  Ni
  O56      1.0000 0.79763  0.77767  0.43827  Biso   1.000  O 
  C60      1.0000 0.84613  0.79587  0.46727  Biso   1.000  C 
  O57      1.0000 0.89453  0.81407  0.49617  Biso   1.000  O 
  O58      1.0000 0.69027  0.74853  0.17253  Biso   1.000  O 
  C61      1.0000 0.67857  0.79073  0.25173  Biso   1.000  C 
  C62      1.0000 0.68217  0.83723  0.13973  Biso   1.000  C 
  H6       1.0000 0.69408  0.83967  0.98563  Biso   1.000  H 
  O59      1.0000 0.72493  0.64307  0.50587  Biso   1.000  O 
  C63      1.0000 0.77883  0.65477  0.58507  Biso   1.000  C 
  C64      1.0000 0.82173  0.65117  0.47307  Biso   1.000  C 
  H7       1.0000 0.81226  0.63926  0.31897  Biso   1.000  H 
  C65      1.0000 0.87363  0.66157  0.54527  Biso   1.000  C 
  O60      1.0000 0.76853  0.69617  0.11117  Biso   1.000  O 
  O61      1.0000 0.63850  0.63220  0.19800  Biso   1.000  O 
  C66      1.0000 0.59390  0.58080  0.27030  Biso   1.000  C 
  O62      1.0000 0.59430  0.56480  0.44450  Biso   1.000  O 
  C67      1.0000 0.54540  0.54030  0.12140  Biso   1.000  C 
  C68      1.0000 0.50390  0.48840  0.19360  Biso   1.000  C 
  C69      1.0000 0.45740  0.44550  0.08160  Biso   1.000  C 
  O63      1.0000 0.41520  0.39160  0.16080  Biso   1.000  O 
  Ni18     1.0000 0.36292  0.31504  0.02007  Biso   1.000  Ni
  O64      1.0000 0.36150  0.36780  0.80200  Biso   1.000  O 
  O65      1.0000 0.44433  0.31337  0.89507  Biso   1.000  O 
  C70      1.0000 0.46253  0.28307  0.86607  Biso   1.000  C 
  O66      1.0000 0.48073  0.25287  0.83717  Biso   1.000  O 
  O67      1.0000 0.36283  0.26097  0.22217  Biso   1.000  O 
  C71      1.0000 0.34643  0.26057  0.39637  Biso   1.000  C 
  O68      1.0000 0.33963  0.30517  0.46867  Biso   1.000  O 
  C72      1.0000 0.33843  0.21207  0.54527  Biso   1.000  C 
  C73      1.0000 0.34883  0.17057  0.47307  Biso   1.000  C 
  H8       1.0000 0.36074  0.17301  0.31897  Biso   1.000  H 
  O69      1.0000 0.29887  0.32703  0.13533  Biso   1.000  O 
  C74      1.0000 0.24747  0.32023  0.06303  Biso   1.000  C 
  O70      1.0000 0.23147  0.30383  0.88883  Biso   1.000  O 
  C75      1.0000 0.20697  0.32823  0.21193  Biso   1.000  C 
  C76      1.0000 0.22117  0.34523  0.41493  Biso   1.000  C 
  O71      1.0000 0.27507  0.35693  0.49413  Biso   1.000  O 
  C77      1.0000 0.17827  0.34883  0.52693  Biso   1.000  C 
  C78      1.0000 0.12637  0.33843  0.45473  Biso   1.000  C 
  C79      1.0000 0.11217  0.32143  0.25173  Biso   1.000  C 
  O72      1.0000 0.05827  0.30973  0.17253  Biso   1.000  O 
  C80      1.0000 0.15507  0.31783  0.13973  Biso   1.000  C 
  H9       1.0000 0.14560  0.30592  0.98563  Biso   1.000  H 
  C81      1.0000 0.08587  0.34643  0.60363  Biso   1.000  C 
  O73      1.0000 0.03447  0.33963  0.53133  Biso   1.000  O 
  O74      1.0000 0.10187  0.36283  0.77783  Biso   1.000  O 
  H10      1.0000 0.18774  0.36074  0.68103  Biso   1.000  H 
  H11      1.0000 0.50634  0.47893  0.34770  Biso   1.000  H 
  O75      1.0000 0.68663  0.13097  0.89507  Biso   1.000  O 
  C82      1.0000 0.71693  0.17947  0.86607  Biso   1.000  C 
  O76      1.0000 0.74713  0.22787  0.83717  Biso   1.000  O 
  O77      1.0000 0.63220  0.99370  0.80200  Biso   1.000  O 
  O78      1.0000 0.73903  0.10187  0.22217  Biso   1.000  O 
  C83      1.0000 0.73943  0.08587  0.39637  Biso   1.000  C 
  O79      1.0000 0.69483  0.03447  0.46867  Biso   1.000  O 
  C84      1.0000 0.78793  0.12637  0.54527  Biso   1.000  C 
  C85      1.0000 0.82943  0.17827  0.47307  Biso   1.000  C 
  H12      1.0000 0.82699  0.18774  0.31897  Biso   1.000  H 
  O80      1.0000 0.32703  0.02817  0.86467  Biso   1.000  O 
  C86      1.0000 0.32023  0.07277  0.93697  Biso   1.000  C 
  O81      1.0000 0.30383  0.07237  0.11117  Biso   1.000  O 
  O82      1.0000 0.02950  0.59430  0.55550  Biso   1.000  O 
  H13      1.0000 0.97259  0.49366  0.34770  Biso   1.000  H 
  O83      1.0000 0.13097  0.44433  0.10493  Biso   1.000  O 
  C87      1.0000 0.17947  0.46253  0.13393  Biso   1.000  C 
  O84      1.0000 0.22787  0.48073  0.16283  Biso   1.000  O 
  H14      1.0000 0.83967  0.14560  0.01437  Biso   1.000  H 
  O85      1.0000 0.31337  0.86903  0.10493  Biso   1.000  O 
  C88      1.0000 0.28307  0.82053  0.13393  Biso   1.000  C 
  O86      1.0000 0.25287  0.77213  0.16283  Biso   1.000  O 
  H15      1.0000 0.30592  0.16033  0.01437  Biso   1.000  H 
  O87      1.0000 0.35330  0.46430  0.22840  Biso   1.000  O 
  C89      1.0000 0.38360  0.51280  0.19940  Biso   1.000  C 
  O88      1.0000 0.41380  0.56120  0.17050  Biso   1.000  O 
  H16      1.0000 0.49366  0.52107  0.65230  Biso   1.000  H 
  O89      1.0000 0.55567  0.68663  0.10493  Biso   1.000  O 
  C90      1.0000 0.53747  0.71693  0.13393  Biso   1.000  C 
  O90      1.0000 0.51927  0.74713  0.16283  Biso   1.000  O 
  H17      1.0000 0.85440  0.69408  0.01437  Biso   1.000  H 
  H18      1.0000 0.02741  0.50634  0.65230  Biso   1.000  H 
