data_image0
_cell_length_a       25.9192
_cell_length_b       25.9192
_cell_length_c       6.85325
_cell_angle_alpha    90
_cell_angle_beta     90
_cell_angle_gamma    120

_symmetry_space_group_name_H-M    "P 1"
_symmetry_int_tables_number       1

loop_
  _symmetry_equiv_pos_as_xyz
  'x, y, z'

loop_
  _atom_site_label
  _atom_site_occupancy
  _atom_site_fract_x
  _atom_site_fract_y
  _atom_site_fract_z
  _atom_site_thermal_displace_type
  _atom_site_B_iso_or_equiv
  _atom_site_type_symbol
  C1       1.0000 0.00610  0.49970  0.80700  Biso   1.000  C 
  C2       1.0000 0.00380  0.54460  0.88000  Biso   1.000  C 
  C3       1.0000 0.01810  0.59580  0.72900  Biso   1.000  C 
  O1       1.0000 0.03070  0.59330  0.55790  Biso   1.000  O 
  Zn1      1.0000 0.02865  0.64625  0.36110  Biso   1.000  Zn
  Zn2      1.0000 0.02042  0.71573  0.69443  Biso   1.000  Zn
  O2       1.0000 0.00857  0.79303  0.56033  Biso   1.000  O 
  C4       1.0000 0.04797  0.84133  0.55333  Biso   1.000  C 
  O3       1.0000 0.08737  0.88953  0.54633  Biso   1.000  O 
  Zn3      1.0000 0.95093  0.63802  0.02777  Biso   1.000  Zn
  O4       1.0000 0.02577  0.70243  0.12993  Biso   1.000  O 
  C5       1.0000 0.07087  0.75563  0.06233  Biso   1.000  C 
  C6       1.0000 0.12207  0.79253  0.21333  Biso   1.000  C 
  C7       1.0000 0.12067  0.78133  0.40533  Biso   1.000  C 
  O5       1.0000 0.07567  0.72173  0.48903  Biso   1.000  O 
  C8       1.0000 0.16637  0.82693  0.52633  Biso   1.000  C 
  H1       1.0000 0.16294  0.82143  0.68419  Biso   1.000  H 
  C9       1.0000 0.21127  0.87413  0.45333  Biso   1.000  C 
  C10      1.0000 0.21267  0.88533  0.26133  Biso   1.000  C 
  O6       1.0000 0.25767  0.94493  0.17763  Biso   1.000  O 
  Zn4      1.0000 0.30468  0.02042  0.30557  Biso   1.000  Zn
  O7       1.0000 0.21553  0.00857  0.43967  Biso   1.000  O 
  C11      1.0000 0.20663  0.04797  0.44667  Biso   1.000  C 
  O8       1.0000 0.19783  0.08737  0.45367  Biso   1.000  O 
  O9       1.0000 0.35393  0.07567  0.51097  Biso   1.000  O 
  Zn5      1.0000 0.38240  0.02865  0.63890  Biso   1.000  Zn
  O10      1.0000 0.45970  0.11780  0.77300  Biso   1.000  O 
  C12      1.0000 0.50800  0.12670  0.78000  Biso   1.000  C 
  O11      1.0000 0.55620  0.13550  0.78700  Biso   1.000  O 
  O12      1.0000 0.38840  0.97940  0.84430  Biso   1.000  O 
  Zn6      1.0000 0.31292  0.95093  0.97223  Biso   1.000  Zn
  O13      1.0000 0.32333  0.02577  0.87007  Biso   1.000  O 
  C13      1.0000 0.31523  0.07087  0.93767  Biso   1.000  C 
  O14      1.0000 0.30263  0.07337  0.10877  Biso   1.000  O 
  C14      1.0000 0.32953  0.12207  0.78667  Biso   1.000  C 
  C15      1.0000 0.33933  0.12067  0.59467  Biso   1.000  C 
  C16      1.0000 0.33943  0.16637  0.47367  Biso   1.000  C 
  C17      1.0000 0.33713  0.21127  0.54667  Biso   1.000  C 
  C18      1.0000 0.32733  0.21267  0.73867  Biso   1.000  C 
  O15      1.0000 0.31273  0.25767  0.82237  Biso   1.000  O 
  Zn7      1.0000 0.28427  0.30468  0.69443  Biso   1.000  Zn
  O16      1.0000 0.20697  0.21553  0.56033  Biso   1.000  O 
  C19      1.0000 0.15867  0.20663  0.55333  Biso   1.000  C 
  O17      1.0000 0.11047  0.19783  0.54633  Biso   1.000  O 
  Zn8      1.0000 0.36198  0.31292  0.02777  Biso   1.000  Zn
  O18      1.0000 0.40900  0.38840  0.15570  Biso   1.000  O 
  Zn9      1.0000 0.35375  0.38240  0.36110  Biso   1.000  Zn
  O19      1.0000 0.34190  0.45970  0.22700  Biso   1.000  O 
  C20      1.0000 0.38130  0.50800  0.22000  Biso   1.000  C 
  O20      1.0000 0.42070  0.55620  0.21300  Biso   1.000  O 
  O21      1.0000 0.27827  0.35393  0.48903  Biso   1.000  O 
  C21      1.0000 0.21867  0.33933  0.40533  Biso   1.000  C 
  C22      1.0000 0.17307  0.33943  0.52633  Biso   1.000  C 
  H2       1.0000 0.17857  0.34151  0.68419  Biso   1.000  H 
  C23      1.0000 0.12587  0.33713  0.45333  Biso   1.000  C 
  C24      1.0000 0.11467  0.32733  0.26133  Biso   1.000  C 
  O22      1.0000 0.05507  0.31273  0.17763  Biso   1.000  O 
  Zn10     1.0000 0.04907  0.36198  0.97223  Biso   1.000  Zn
  Zn11     1.0000 0.97958  0.28427  0.30557  Biso   1.000  Zn
  O23      1.0000 0.99143  0.20697  0.43967  Biso   1.000  O 
  C25      1.0000 0.95203  0.15867  0.44667  Biso   1.000  C 
  O24      1.0000 0.91263  0.11047  0.45367  Biso   1.000  O 
  O25      1.0000 0.03577  0.34333  0.53673  Biso   1.000  O 
  C26      1.0000 0.08897  0.35143  0.60433  Biso   1.000  C 
  O26      1.0000 0.10407  0.36403  0.77543  Biso   1.000  O 
  Zn12     1.0000 0.97135  0.35375  0.63890  Biso   1.000  Zn
  O27      1.0000 0.88220  0.34190  0.77300  Biso   1.000  O 
  C27      1.0000 0.87330  0.38130  0.78000  Biso   1.000  C 
  O28      1.0000 0.86450  0.42070  0.78700  Biso   1.000  O 
  O29      1.0000 0.02060  0.40900  0.84430  Biso   1.000  O 
  C28      1.0000 0.00600  0.45400  0.92800  Biso   1.000  C 
  C29      1.0000 0.99620  0.45540  0.12000  Biso   1.000  C 
  C30      1.0000 0.98190  0.40420  0.27100  Biso   1.000  C 
  O30      1.0000 0.99000  0.35910  0.20340  Biso   1.000  O 
  O31      1.0000 0.96930  0.40670  0.44210  Biso   1.000  O 
  C31      1.0000 0.99390  0.50030  0.19300  Biso   1.000  C 
  C32      1.0000 0.99400  0.54600  0.07200  Biso   1.000  C 
  O32      1.0000 0.97940  0.59100  0.15570  Biso   1.000  O 
  H3       1.0000 0.99182  0.50372  0.35086  Biso   1.000  H 
  O33      1.0000 0.92433  0.27827  0.51097  Biso   1.000  O 
  C33      1.0000 0.87933  0.21867  0.59467  Biso   1.000  C 
  C34      1.0000 0.83363  0.17307  0.47367  Biso   1.000  C 
  C35      1.0000 0.78873  0.12587  0.54667  Biso   1.000  C 
  C36      1.0000 0.73753  0.08897  0.39567  Biso   1.000  C 
  O34      1.0000 0.69243  0.03577  0.46327  Biso   1.000  O 
  Zn13     1.0000 0.61760  0.97135  0.36110  Biso   1.000  Zn
  O35      1.0000 0.54030  0.88220  0.22700  Biso   1.000  O 
  C37      1.0000 0.49200  0.87330  0.22000  Biso   1.000  C 
  O36      1.0000 0.44380  0.86450  0.21300  Biso   1.000  O 
  Zn14     1.0000 0.69532  0.97958  0.69443  Biso   1.000  Zn
  O37      1.0000 0.78447  0.99143  0.56033  Biso   1.000  O 
  C38      1.0000 0.79337  0.95203  0.55333  Biso   1.000  C 
  O38      1.0000 0.80217  0.91263  0.54633  Biso   1.000  O 
  O39      1.0000 0.74233  0.05507  0.82237  Biso   1.000  O 
  Zn15     1.0000 0.68708  0.04907  0.02777  Biso   1.000  Zn
  O40      1.0000 0.61160  0.02060  0.15570  Biso   1.000  O 
  C39      1.0000 0.55200  0.00600  0.07200  Biso   1.000  C 
  C40      1.0000 0.50640  0.00610  0.19300  Biso   1.000  C 
  C41      1.0000 0.45920  0.00380  0.12000  Biso   1.000  C 
  C42      1.0000 0.42230  0.01810  0.27100  Biso   1.000  C 
  O41      1.0000 0.36910  0.01000  0.20340  Biso   1.000  O 
  O42      1.0000 0.43740  0.03070  0.44210  Biso   1.000  O 
  C43      1.0000 0.44800  0.99400  0.92800  Biso   1.000  C 
  C44      1.0000 0.49360  0.99390  0.80700  Biso   1.000  C 
  H4       1.0000 0.48810  0.99182  0.64914  Biso   1.000  H 
  C45      1.0000 0.54080  0.99620  0.88000  Biso   1.000  C 
  C46      1.0000 0.57770  0.98190  0.72900  Biso   1.000  C 
  O43      1.0000 0.56260  0.96930  0.55790  Biso   1.000  O 
  O44      1.0000 0.63090  0.99000  0.79660  Biso   1.000  O 
  H5       1.0000 0.51190  0.00818  0.35086  Biso   1.000  H 
  O45      1.0000 0.74003  0.10407  0.22457  Biso   1.000  O 
  O46      1.0000 0.67667  0.97423  0.12993  Biso   1.000  O 
  C47      1.0000 0.68477  0.92913  0.06233  Biso   1.000  C 
  C48      1.0000 0.67047  0.87793  0.21333  Biso   1.000  C 
  C49      1.0000 0.66067  0.87933  0.40533  Biso   1.000  C 
  O47      1.0000 0.64607  0.92433  0.48903  Biso   1.000  O 
  C50      1.0000 0.66057  0.83363  0.52633  Biso   1.000  C 
  H6       1.0000 0.65849  0.83706  0.68419  Biso   1.000  H 
  C51      1.0000 0.66287  0.78873  0.45333  Biso   1.000  C 
  C52      1.0000 0.67267  0.78733  0.26133  Biso   1.000  C 
  O48      1.0000 0.68727  0.74233  0.17763  Biso   1.000  O 
  Zn16     1.0000 0.71573  0.69532  0.30557  Biso   1.000  Zn
  O49      1.0000 0.79303  0.78447  0.43967  Biso   1.000  O 
  C53      1.0000 0.84133  0.79337  0.44667  Biso   1.000  C 
  O50      1.0000 0.88953  0.80217  0.45367  Biso   1.000  O 
  O51      1.0000 0.72173  0.64607  0.51097  Biso   1.000  O 
  Zn17     1.0000 0.64625  0.61760  0.63890  Biso   1.000  Zn
  O52      1.0000 0.65810  0.54030  0.77300  Biso   1.000  O 
  C54      1.0000 0.61870  0.49200  0.78000  Biso   1.000  C 
  O53      1.0000 0.57930  0.44380  0.78700  Biso   1.000  O 
  Zn18     1.0000 0.63802  0.68708  0.97223  Biso   1.000  Zn
  O54      1.0000 0.54887  0.67523  0.10633  Biso   1.000  O 
  C55      1.0000 0.53997  0.71463  0.11333  Biso   1.000  C 
  O55      1.0000 0.53117  0.75403  0.12033  Biso   1.000  O 
  O56      1.0000 0.64090  0.63090  0.20340  Biso   1.000  O 
  C56      1.0000 0.59580  0.57770  0.27100  Biso   1.000  C 
  O57      1.0000 0.59330  0.56260  0.44210  Biso   1.000  O 
  C57      1.0000 0.54460  0.54080  0.12000  Biso   1.000  C 
  C58      1.0000 0.49970  0.49360  0.19300  Biso   1.000  C 
  C59      1.0000 0.45400  0.44800  0.07200  Biso   1.000  C 
  C60      1.0000 0.45540  0.45920  0.88000  Biso   1.000  C 
  C61      1.0000 0.40420  0.42230  0.72900  Biso   1.000  C 
  O58      1.0000 0.40670  0.43740  0.55790  Biso   1.000  O 
  O59      1.0000 0.35910  0.36910  0.79660  Biso   1.000  O 
  C62      1.0000 0.50030  0.50640  0.80700  Biso   1.000  C 
  H7       1.0000 0.50372  0.51190  0.64914  Biso   1.000  H 
  C63      1.0000 0.54600  0.55200  0.92800  Biso   1.000  C 
  O60      1.0000 0.59100  0.61160  0.84430  Biso   1.000  O 
  H8       1.0000 0.49628  0.48810  0.35086  Biso   1.000  H 
  O61      1.0000 0.63597  0.74003  0.77543  Biso   1.000  O 
  C64      1.0000 0.64857  0.73753  0.60433  Biso   1.000  C 
  O62      1.0000 0.65667  0.69243  0.53673  Biso   1.000  O 
  O63      1.0000 0.70243  0.67667  0.87007  Biso   1.000  O 
  C65      1.0000 0.75563  0.68477  0.93767  Biso   1.000  C 
  O64      1.0000 0.77073  0.69737  0.10877  Biso   1.000  O 
  C66      1.0000 0.79253  0.67047  0.78667  Biso   1.000  C 
  C67      1.0000 0.78133  0.66067  0.59467  Biso   1.000  C 
  C68      1.0000 0.82693  0.66057  0.47367  Biso   1.000  C 
  H9       1.0000 0.82143  0.65849  0.31581  Biso   1.000  H 
  C69      1.0000 0.87413  0.66287  0.54667  Biso   1.000  C 
  C70      1.0000 0.91103  0.64857  0.39567  Biso   1.000  C 
  O65      1.0000 0.89593  0.63597  0.22457  Biso   1.000  O 
  O66      1.0000 0.96423  0.65667  0.46327  Biso   1.000  O 
  C71      1.0000 0.88533  0.67267  0.73867  Biso   1.000  C 
  O67      1.0000 0.94493  0.68727  0.82237  Biso   1.000  O 
  C72      1.0000 0.83973  0.67277  0.85967  Biso   1.000  C 
  H10      1.0000 0.84523  0.67485  0.01752  Biso   1.000  H 
  C73      1.0000 0.67277  0.83303  0.14033  Biso   1.000  C 
  H11      1.0000 0.67485  0.82961  0.98248  Biso   1.000  H 
  O68      1.0000 0.69737  0.92663  0.89123  Biso   1.000  O 
  O69      1.0000 0.67523  0.12637  0.89367  Biso   1.000  O 
  C74      1.0000 0.71463  0.17467  0.88667  Biso   1.000  C 
  O70      1.0000 0.75403  0.22287  0.87967  Biso   1.000  O 
  C75      1.0000 0.78733  0.11467  0.73867  Biso   1.000  C 
  C76      1.0000 0.83303  0.16027  0.85967  Biso   1.000  C 
  C77      1.0000 0.87793  0.20747  0.78667  Biso   1.000  C 
  C78      1.0000 0.92913  0.24437  0.93767  Biso   1.000  C 
  O71      1.0000 0.97423  0.29757  0.87007  Biso   1.000  O 
  O72      1.0000 0.92663  0.22927  0.10877  Biso   1.000  O 
  H12      1.0000 0.82961  0.15477  0.01752  Biso   1.000  H 
  H13      1.0000 0.83706  0.17857  0.31581  Biso   1.000  H 
  O73      1.0000 0.12637  0.45113  0.10633  Biso   1.000  O 
  C79      1.0000 0.17467  0.46003  0.11333  Biso   1.000  C 
  O74      1.0000 0.22287  0.46883  0.12033  Biso   1.000  O 
  C80      1.0000 0.16027  0.32723  0.14033  Biso   1.000  C 
  C81      1.0000 0.20747  0.32953  0.21333  Biso   1.000  C 
  C82      1.0000 0.24437  0.31523  0.06233  Biso   1.000  C 
  O75      1.0000 0.29757  0.32333  0.12993  Biso   1.000  O 
  O76      1.0000 0.22927  0.30263  0.89123  Biso   1.000  O 
  H14      1.0000 0.15477  0.32515  0.98248  Biso   1.000  H 
  O77      1.0000 0.34333  0.30757  0.46327  Biso   1.000  O 
  C83      1.0000 0.35143  0.26247  0.39567  Biso   1.000  C 
  O78      1.0000 0.36403  0.25997  0.22457  Biso   1.000  O 
  O79      1.0000 0.45113  0.32477  0.89367  Biso   1.000  O 
  C84      1.0000 0.46003  0.28537  0.88667  Biso   1.000  C 
  O80      1.0000 0.46883  0.24597  0.87967  Biso   1.000  O 
  C85      1.0000 0.32723  0.16697  0.85967  Biso   1.000  C 
  H15      1.0000 0.32515  0.17039  0.01752  Biso   1.000  H 
  H16      1.0000 0.34151  0.16294  0.31581  Biso   1.000  H 
  O81      1.0000 0.32477  0.87363  0.10633  Biso   1.000  O 
  C86      1.0000 0.28537  0.82533  0.11333  Biso   1.000  C 
  O82      1.0000 0.24597  0.77713  0.12033  Biso   1.000  O 
  O83      1.0000 0.25997  0.89593  0.77543  Biso   1.000  O 
  C87      1.0000 0.26247  0.91103  0.60433  Biso   1.000  C 
  O84      1.0000 0.30757  0.96423  0.53673  Biso   1.000  O 
  C88      1.0000 0.16697  0.83973  0.14033  Biso   1.000  C 
  H17      1.0000 0.17039  0.84523  0.98248  Biso   1.000  H 
  O85      1.0000 0.07337  0.77073  0.89123  Biso   1.000  O 
  O86      1.0000 0.01000  0.64090  0.79660  Biso   1.000  O 
  O87      1.0000 0.87363  0.54887  0.89367  Biso   1.000  O 
  C89      1.0000 0.82533  0.53997  0.88667  Biso   1.000  C 
  O88      1.0000 0.77713  0.53117  0.87967  Biso   1.000  O 
  O89      1.0000 0.11780  0.65810  0.22700  Biso   1.000  O 
  C90      1.0000 0.12670  0.61870  0.22000  Biso   1.000  C 
  O90      1.0000 0.13550  0.57930  0.21300  Biso   1.000  O 
  H18      1.0000 0.00818  0.49628  0.64914  Biso   1.000  H 
