data_image0
_cell_length_a       25.9181
_cell_length_b       25.9181
_cell_length_c       6.85388
_cell_angle_alpha    90
_cell_angle_beta     90
_cell_angle_gamma    120

_symmetry_space_group_name_H-M    "P 1"
_symmetry_int_tables_number       1

loop_
  _symmetry_equiv_pos_as_xyz
  'x, y, z'

loop_
  _atom_site_label
  _atom_site_occupancy
  _atom_site_fract_x
  _atom_site_fract_y
  _atom_site_fract_z
  _atom_site_thermal_displace_type
  _atom_site_B_iso_or_equiv
  _atom_site_type_symbol
  C1       1.0000 0.00610  0.49970  0.80700  Biso   1.000  C 
  H1       1.0000 0.00818  0.49628  0.64916  Biso   1.000  H 
  C2       1.0000 0.00380  0.54460  0.88000  Biso   1.000  C 
  C3       1.0000 0.01810  0.59570  0.72900  Biso   1.000  C 
  O1       1.0000 0.03070  0.59330  0.55770  Biso   1.000  O 
  Zn1      1.0000 0.02869  0.64625  0.36100  Biso   1.000  Zn
  Zn2      1.0000 0.02042  0.71577  0.69433  Biso   1.000  Zn
  O2       1.0000 0.00847  0.79323  0.56033  Biso   1.000  O 
  C4       1.0000 0.04757  0.84173  0.55333  Biso   1.000  C 
  O3       1.0000 0.08677  0.89013  0.54733  Biso   1.000  O 
  O4       1.0000 0.96413  0.65677  0.46317  Biso   1.000  O 
  C5       1.0000 0.91093  0.64857  0.39567  Biso   1.000  C 
  O5       1.0000 0.89593  0.63597  0.22437  Biso   1.000  O 
  Zn3      1.0000 0.95089  0.63798  0.02767  Biso   1.000  Zn
  O6       1.0000 0.00990  0.64070  0.79650  Biso   1.000  O 
  O7       1.0000 0.87343  0.54857  0.89367  Biso   1.000  O 
  C6       1.0000 0.82493  0.53917  0.88667  Biso   1.000  C 
  O8       1.0000 0.77653  0.52997  0.88067  Biso   1.000  O 
  O9       1.0000 0.94503  0.68747  0.82227  Biso   1.000  O 
  C7       1.0000 0.88533  0.67267  0.73867  Biso   1.000  C 
  C8       1.0000 0.83973  0.67277  0.85967  Biso   1.000  C 
  C9       1.0000 0.79253  0.67047  0.78667  Biso   1.000  C 
  C10      1.0000 0.75573  0.68477  0.93767  Biso   1.000  C 
  O10      1.0000 0.70253  0.67657  0.87017  Biso   1.000  O 
  Zn4      1.0000 0.64625  0.61756  0.63900  Biso   1.000  Zn
  O11      1.0000 0.65820  0.54010  0.77300  Biso   1.000  O 
  C11      1.0000 0.61910  0.49160  0.78000  Biso   1.000  C 
  O12      1.0000 0.57990  0.44320  0.78600  Biso   1.000  O 
  Zn5      1.0000 0.71577  0.69536  0.30567  Biso   1.000  Zn
  O13      1.0000 0.79323  0.78477  0.43967  Biso   1.000  O 
  C12      1.0000 0.84173  0.79417  0.44667  Biso   1.000  C 
  O14      1.0000 0.89013  0.80337  0.45267  Biso   1.000  O 
  Zn6      1.0000 0.63798  0.68708  0.97233  Biso   1.000  Zn
  O15      1.0000 0.59090  0.61170  0.84440  Biso   1.000  O 
  C13      1.0000 0.54600  0.55200  0.92800  Biso   1.000  C 
  C14      1.0000 0.50030  0.50640  0.80700  Biso   1.000  C 
  H2       1.0000 0.50372  0.51190  0.64916  Biso   1.000  H 
  C15      1.0000 0.45540  0.45920  0.88000  Biso   1.000  C 
  C16      1.0000 0.40430  0.42240  0.72900  Biso   1.000  C 
  O16      1.0000 0.40670  0.43740  0.55770  Biso   1.000  O 
  Zn7      1.0000 0.35375  0.38244  0.36100  Biso   1.000  Zn
  Zn8      1.0000 0.28423  0.30464  0.69433  Biso   1.000  Zn
  O17      1.0000 0.20677  0.21523  0.56033  Biso   1.000  O 
  C17      1.0000 0.15827  0.20583  0.55333  Biso   1.000  C 
  O18      1.0000 0.10987  0.19663  0.54733  Biso   1.000  O 
  O19      1.0000 0.31253  0.25757  0.82227  Biso   1.000  O 
  C18      1.0000 0.32733  0.21267  0.73867  Biso   1.000  C 
  C19      1.0000 0.32723  0.16697  0.85967  Biso   1.000  C 
  C20      1.0000 0.32953  0.12207  0.78667  Biso   1.000  C 
  C21      1.0000 0.33933  0.12067  0.59467  Biso   1.000  C 
  O20      1.0000 0.35413  0.07577  0.51107  Biso   1.000  O 
  Zn9      1.0000 0.30464  0.02042  0.30567  Biso   1.000  Zn
  O21      1.0000 0.21523  0.00847  0.43967  Biso   1.000  O 
  C22      1.0000 0.20583  0.04757  0.44667  Biso   1.000  C 
  O22      1.0000 0.19663  0.08677  0.45267  Biso   1.000  O 
  O23      1.0000 0.25757  0.94503  0.17773  Biso   1.000  O 
  Zn10     1.0000 0.31292  0.95089  0.97233  Biso   1.000  Zn
  O24      1.0000 0.38830  0.97920  0.84440  Biso   1.000  O 
  C23      1.0000 0.44800  0.99400  0.92800  Biso   1.000  C 
  C24      1.0000 0.49360  0.99390  0.80700  Biso   1.000  C 
  H3       1.0000 0.48810  0.99182  0.64916  Biso   1.000  H 
  C25      1.0000 0.54080  0.99620  0.88000  Biso   1.000  C 
  C26      1.0000 0.57760  0.98190  0.72900  Biso   1.000  C 
  O25      1.0000 0.56260  0.96930  0.55770  Biso   1.000  O 
  Zn11     1.0000 0.61756  0.97131  0.36100  Biso   1.000  Zn
  O26      1.0000 0.54010  0.88190  0.22700  Biso   1.000  O 
  C27      1.0000 0.49160  0.87250  0.22000  Biso   1.000  C 
  O27      1.0000 0.44320  0.86330  0.21400  Biso   1.000  O 
  Zn12     1.0000 0.69536  0.97958  0.69433  Biso   1.000  Zn
  O28      1.0000 0.78477  0.99153  0.56033  Biso   1.000  O 
  C28      1.0000 0.79417  0.95243  0.55333  Biso   1.000  C 
  O29      1.0000 0.80337  0.91323  0.54733  Biso   1.000  O 
  O30      1.0000 0.74243  0.05497  0.82227  Biso   1.000  O 
  C29      1.0000 0.78733  0.11467  0.73867  Biso   1.000  C 
  C30      1.0000 0.83303  0.16027  0.85967  Biso   1.000  C 
  C31      1.0000 0.87793  0.20747  0.78667  Biso   1.000  C 
  C32      1.0000 0.87933  0.21867  0.59467  Biso   1.000  C 
  O31      1.0000 0.92423  0.27837  0.51107  Biso   1.000  O 
  Zn13     1.0000 0.97131  0.35375  0.63900  Biso   1.000  Zn
  O32      1.0000 0.88190  0.34180  0.77300  Biso   1.000  O 
  C33      1.0000 0.87250  0.38090  0.78000  Biso   1.000  C 
  O33      1.0000 0.86330  0.42010  0.78600  Biso   1.000  O 
  Zn14     1.0000 0.97958  0.28423  0.30567  Biso   1.000  Zn
  O34      1.0000 0.99153  0.20677  0.43967  Biso   1.000  O 
  C34      1.0000 0.95243  0.15827  0.44667  Biso   1.000  C 
  O35      1.0000 0.91323  0.10987  0.45267  Biso   1.000  O 
  Zn15     1.0000 0.04911  0.36202  0.97233  Biso   1.000  Zn
  O36      1.0000 0.97403  0.29747  0.87017  Biso   1.000  O 
  C35      1.0000 0.92903  0.24427  0.93767  Biso   1.000  C 
  O37      1.0000 0.92663  0.22927  0.10897  Biso   1.000  O 
  O38      1.0000 0.02080  0.40910  0.84440  Biso   1.000  O 
  C36      1.0000 0.00600  0.45400  0.92800  Biso   1.000  C 
  C37      1.0000 0.99620  0.45540  0.12000  Biso   1.000  C 
  C38      1.0000 0.98190  0.40430  0.27100  Biso   1.000  C 
  O39      1.0000 0.99010  0.35930  0.20350  Biso   1.000  O 
  O40      1.0000 0.96930  0.40670  0.44230  Biso   1.000  O 
  C39      1.0000 0.99390  0.50030  0.19300  Biso   1.000  C 
  C40      1.0000 0.99400  0.54600  0.07200  Biso   1.000  C 
  O41      1.0000 0.97920  0.59090  0.15560  Biso   1.000  O 
  H4       1.0000 0.99182  0.50372  0.35084  Biso   1.000  H 
  O42      1.0000 0.05497  0.31253  0.17773  Biso   1.000  O 
  C41      1.0000 0.11467  0.32733  0.26133  Biso   1.000  C 
  C42      1.0000 0.16027  0.32723  0.14033  Biso   1.000  C 
  C43      1.0000 0.20747  0.32953  0.21333  Biso   1.000  C 
  C44      1.0000 0.21867  0.33933  0.40533  Biso   1.000  C 
  O43      1.0000 0.27837  0.35413  0.48893  Biso   1.000  O 
  C45      1.0000 0.17307  0.33943  0.52633  Biso   1.000  C 
  C46      1.0000 0.12587  0.33713  0.45333  Biso   1.000  C 
  C47      1.0000 0.08907  0.35143  0.60433  Biso   1.000  C 
  O44      1.0000 0.03587  0.34323  0.53683  Biso   1.000  O 
  O45      1.0000 0.10407  0.36403  0.77563  Biso   1.000  O 
  H5       1.0000 0.17857  0.34151  0.68417  Biso   1.000  H 
  C48      1.0000 0.24427  0.31523  0.06233  Biso   1.000  C 
  O46      1.0000 0.29747  0.32343  0.12983  Biso   1.000  O 
  Zn16     1.0000 0.36202  0.31292  0.02767  Biso   1.000  Zn
  O47      1.0000 0.35930  0.36920  0.79650  Biso   1.000  O 
  O48      1.0000 0.45143  0.32487  0.89367  Biso   1.000  O 
  C49      1.0000 0.46083  0.28577  0.88667  Biso   1.000  C 
  O49      1.0000 0.47003  0.24657  0.88067  Biso   1.000  O 
  O50      1.0000 0.40910  0.38830  0.15560  Biso   1.000  O 
  C50      1.0000 0.45400  0.44800  0.07200  Biso   1.000  C 
  C51      1.0000 0.49970  0.49360  0.19300  Biso   1.000  C 
  C52      1.0000 0.54460  0.54080  0.12000  Biso   1.000  C 
  C53      1.0000 0.59570  0.57760  0.27100  Biso   1.000  C 
  O51      1.0000 0.64070  0.63080  0.20350  Biso   1.000  O 
  O52      1.0000 0.59330  0.56260  0.44230  Biso   1.000  O 
  H6       1.0000 0.49628  0.48810  0.35084  Biso   1.000  H 
  O53      1.0000 0.36403  0.25997  0.22437  Biso   1.000  O 
  C54      1.0000 0.35143  0.26237  0.39567  Biso   1.000  C 
  O54      1.0000 0.34323  0.30737  0.46317  Biso   1.000  O 
  C55      1.0000 0.33713  0.21127  0.54667  Biso   1.000  C 
  C56      1.0000 0.33943  0.16637  0.47367  Biso   1.000  C 
  H7       1.0000 0.34151  0.16294  0.31583  Biso   1.000  H 
  O55      1.0000 0.22927  0.30263  0.89103  Biso   1.000  O 
  H8       1.0000 0.15477  0.32515  0.98249  Biso   1.000  H 
  O56      1.0000 0.12657  0.45143  0.10633  Biso   1.000  O 
  C57      1.0000 0.17507  0.46083  0.11333  Biso   1.000  C 
  O57      1.0000 0.22347  0.47003  0.11933  Biso   1.000  O 
  C58      1.0000 0.83363  0.17307  0.47367  Biso   1.000  C 
  C59      1.0000 0.78873  0.12587  0.54667  Biso   1.000  C 
  C60      1.0000 0.73763  0.08907  0.39567  Biso   1.000  C 
  O58      1.0000 0.74003  0.10407  0.22437  Biso   1.000  O 
  Zn17     1.0000 0.68708  0.04911  0.02767  Biso   1.000  Zn
  O59      1.0000 0.67657  0.97403  0.12983  Biso   1.000  O 
  C61      1.0000 0.68477  0.92903  0.06233  Biso   1.000  C 
  O60      1.0000 0.69737  0.92663  0.89103  Biso   1.000  O 
  C62      1.0000 0.67047  0.87793  0.21333  Biso   1.000  C 
  C63      1.0000 0.66067  0.87933  0.40533  Biso   1.000  C 
  O61      1.0000 0.64587  0.92423  0.48893  Biso   1.000  O 
  C64      1.0000 0.66057  0.83363  0.52633  Biso   1.000  C 
  H9       1.0000 0.65849  0.83706  0.68417  Biso   1.000  H 
  C65      1.0000 0.66287  0.78873  0.45333  Biso   1.000  C 
  C66      1.0000 0.64857  0.73763  0.60433  Biso   1.000  C 
  O62      1.0000 0.65677  0.69263  0.53683  Biso   1.000  O 
  O63      1.0000 0.63597  0.74003  0.77563  Biso   1.000  O 
  C67      1.0000 0.67267  0.78733  0.26133  Biso   1.000  C 
  O64      1.0000 0.68747  0.74243  0.17773  Biso   1.000  O 
  C68      1.0000 0.67277  0.83303  0.14033  Biso   1.000  C 
  H10      1.0000 0.67485  0.82961  0.98249  Biso   1.000  H 
  O65      1.0000 0.67513  0.12657  0.89367  Biso   1.000  O 
  C69      1.0000 0.71423  0.17507  0.88667  Biso   1.000  C 
  O66      1.0000 0.75343  0.22347  0.88067  Biso   1.000  O 
  O67      1.0000 0.63080  0.99010  0.79650  Biso   1.000  O 
  O68      1.0000 0.61170  0.02080  0.15560  Biso   1.000  O 
  C70      1.0000 0.55200  0.00600  0.07200  Biso   1.000  C 
  C71      1.0000 0.50640  0.00610  0.19300  Biso   1.000  C 
  C72      1.0000 0.45920  0.00380  0.12000  Biso   1.000  C 
  C73      1.0000 0.42240  0.01810  0.27100  Biso   1.000  C 
  O69      1.0000 0.36920  0.00990  0.20350  Biso   1.000  O 
  O70      1.0000 0.43740  0.03070  0.44230  Biso   1.000  O 
  Zn18     1.0000 0.38244  0.02869  0.63900  Biso   1.000  Zn
  O71      1.0000 0.45990  0.11810  0.77300  Biso   1.000  O 
  C74      1.0000 0.50840  0.12750  0.78000  Biso   1.000  C 
  O72      1.0000 0.55680  0.13670  0.78600  Biso   1.000  O 
  O73      1.0000 0.30737  0.96413  0.53683  Biso   1.000  O 
  C75      1.0000 0.26237  0.91093  0.60433  Biso   1.000  C 
  O74      1.0000 0.25997  0.89593  0.77563  Biso   1.000  O 
  C76      1.0000 0.21127  0.87413  0.45333  Biso   1.000  C 
  C77      1.0000 0.21267  0.88533  0.26133  Biso   1.000  C 
  C78      1.0000 0.16697  0.83973  0.14033  Biso   1.000  C 
  C79      1.0000 0.12207  0.79253  0.21333  Biso   1.000  C 
  C80      1.0000 0.07097  0.75573  0.06233  Biso   1.000  C 
  O75      1.0000 0.02597  0.70253  0.12983  Biso   1.000  O 
  O76      1.0000 0.07337  0.77073  0.89103  Biso   1.000  O 
  C81      1.0000 0.12067  0.78133  0.40533  Biso   1.000  C 
  O77      1.0000 0.07577  0.72163  0.48893  Biso   1.000  O 
  C82      1.0000 0.16637  0.82693  0.52633  Biso   1.000  C 
  H11      1.0000 0.16294  0.82143  0.68417  Biso   1.000  H 
  H12      1.0000 0.17039  0.84523  0.98249  Biso   1.000  H 
  O78      1.0000 0.32343  0.02597  0.87017  Biso   1.000  O 
  C83      1.0000 0.31523  0.07097  0.93767  Biso   1.000  C 
  O79      1.0000 0.30263  0.07337  0.10897  Biso   1.000  O 
  H13      1.0000 0.51190  0.00818  0.35084  Biso   1.000  H 
  O80      1.0000 0.69263  0.03587  0.46317  Biso   1.000  O 
  H14      1.0000 0.83706  0.17857  0.31583  Biso   1.000  H 
  H15      1.0000 0.82961  0.15477  0.01751  Biso   1.000  H 
  O81      1.0000 0.32487  0.87343  0.10633  Biso   1.000  O 
  C84      1.0000 0.28577  0.82493  0.11333  Biso   1.000  C 
  O82      1.0000 0.24657  0.77653  0.11933  Biso   1.000  O 
  H16      1.0000 0.32515  0.17039  0.01751  Biso   1.000  H 
  O83      1.0000 0.34180  0.45990  0.22700  Biso   1.000  O 
  C85      1.0000 0.38090  0.50840  0.22000  Biso   1.000  C 
  O84      1.0000 0.42010  0.55680  0.21400  Biso   1.000  O 
  O85      1.0000 0.54857  0.67513  0.10633  Biso   1.000  O 
  C86      1.0000 0.53917  0.71423  0.11333  Biso   1.000  C 
  O86      1.0000 0.52997  0.75343  0.11933  Biso   1.000  O 
  O87      1.0000 0.72163  0.64587  0.51107  Biso   1.000  O 
  C87      1.0000 0.78133  0.66067  0.59467  Biso   1.000  C 
  C88      1.0000 0.82693  0.66057  0.47367  Biso   1.000  C 
  H17      1.0000 0.82143  0.65849  0.31583  Biso   1.000  H 
  C89      1.0000 0.87413  0.66287  0.54667  Biso   1.000  C 
  O88      1.0000 0.77073  0.69737  0.10897  Biso   1.000  O 
  H18      1.0000 0.84523  0.67485  0.01751  Biso   1.000  H 
  O89      1.0000 0.11810  0.65820  0.22700  Biso   1.000  O 
  C90      1.0000 0.12750  0.61910  0.22000  Biso   1.000  C 
  O90      1.0000 0.13670  0.57990  0.21400  Biso   1.000  O 
