data_image0
_cell_length_a       25.9171
_cell_length_b       25.9171
_cell_length_c       6.85453
_cell_angle_alpha    90
_cell_angle_beta     90
_cell_angle_gamma    120

_symmetry_space_group_name_H-M    "P 1"
_symmetry_int_tables_number       1

loop_
  _symmetry_equiv_pos_as_xyz
  'x, y, z'

loop_
  _atom_site_label
  _atom_site_occupancy
  _atom_site_fract_x
  _atom_site_fract_y
  _atom_site_fract_z
  _atom_site_thermal_displace_type
  _atom_site_B_iso_or_equiv
  _atom_site_type_symbol
  C1       1.0000 0.00620  0.49970  0.80700  Biso   1.000  C 
  C2       1.0000 0.00380  0.54460  0.88000  Biso   1.000  C 
  C3       1.0000 0.01810  0.59570  0.72900  Biso   1.000  C 
  O1       1.0000 0.03070  0.59330  0.55760  Biso   1.000  O 
  Zn1      1.0000 0.02870  0.64625  0.36080  Biso   1.000  Zn
  Zn2      1.0000 0.02042  0.71578  0.69413  Biso   1.000  Zn
  O2       1.0000 0.00847  0.79343  0.55933  Biso   1.000  O 
  C4       1.0000 0.04727  0.84203  0.55333  Biso   1.000  C 
  O3       1.0000 0.08617  0.89063  0.54633  Biso   1.000  O 
  O4       1.0000 0.96413  0.65707  0.46297  Biso   1.000  O 
  C5       1.0000 0.91093  0.64857  0.39567  Biso   1.000  C 
  O5       1.0000 0.89593  0.63597  0.22427  Biso   1.000  O 
  Zn3      1.0000 0.95088  0.63797  0.02747  Biso   1.000  Zn
  O6       1.0000 0.00960  0.64040  0.79630  Biso   1.000  O 
  O7       1.0000 0.87323  0.54837  0.89267  Biso   1.000  O 
  C6       1.0000 0.82463  0.53857  0.88667  Biso   1.000  C 
  O8       1.0000 0.77603  0.52887  0.87967  Biso   1.000  O 
  O9       1.0000 0.94503  0.68767  0.82207  Biso   1.000  O 
  C7       1.0000 0.88523  0.67267  0.73967  Biso   1.000  C 
  C8       1.0000 0.83983  0.67287  0.85967  Biso   1.000  C 
  C9       1.0000 0.79253  0.67047  0.78667  Biso   1.000  C 
  C10      1.0000 0.75573  0.68477  0.93767  Biso   1.000  C 
  O10      1.0000 0.70253  0.67627  0.87037  Biso   1.000  O 
  Zn4      1.0000 0.64625  0.61755  0.63920  Biso   1.000  Zn
  O11      1.0000 0.65820  0.53990  0.77400  Biso   1.000  O 
  C11      1.0000 0.61940  0.49130  0.78000  Biso   1.000  C 
  O12      1.0000 0.58050  0.44270  0.78700  Biso   1.000  O 
  Zn5      1.0000 0.71578  0.69537  0.30587  Biso   1.000  Zn
  O13      1.0000 0.79343  0.78497  0.44067  Biso   1.000  O 
  C12      1.0000 0.84203  0.79477  0.44667  Biso   1.000  C 
  O14      1.0000 0.89063  0.80447  0.45367  Biso   1.000  O 
  Zn6      1.0000 0.63797  0.68708  0.97253  Biso   1.000  Zn
  O15      1.0000 0.59070  0.61170  0.84460  Biso   1.000  O 
  C13      1.0000 0.54590  0.55190  0.92700  Biso   1.000  C 
  C14      1.0000 0.50030  0.50650  0.80700  Biso   1.000  C 
  H1       1.0000 0.50359  0.51204  0.64918  Biso   1.000  H 
  C15      1.0000 0.45540  0.45920  0.88000  Biso   1.000  C 
  C16      1.0000 0.40430  0.42240  0.72900  Biso   1.000  C 
  O16      1.0000 0.40670  0.43740  0.55760  Biso   1.000  O 
  Zn7      1.0000 0.35375  0.38245  0.36080  Biso   1.000  Zn
  Zn8      1.0000 0.28422  0.30463  0.69413  Biso   1.000  Zn
  O17      1.0000 0.20657  0.21503  0.55933  Biso   1.000  O 
  C17      1.0000 0.15797  0.20523  0.55333  Biso   1.000  C 
  O18      1.0000 0.10937  0.19553  0.54633  Biso   1.000  O 
  O19      1.0000 0.31233  0.25737  0.82207  Biso   1.000  O 
  C18      1.0000 0.32733  0.21257  0.73967  Biso   1.000  C 
  C19      1.0000 0.32713  0.16697  0.85967  Biso   1.000  C 
  C20      1.0000 0.32953  0.12207  0.78667  Biso   1.000  C 
  C21      1.0000 0.33933  0.12077  0.59367  Biso   1.000  C 
  O20      1.0000 0.35433  0.07597  0.51127  Biso   1.000  O 
  Zn9      1.0000 0.30463  0.02042  0.30587  Biso   1.000  Zn
  O21      1.0000 0.21503  0.00847  0.44067  Biso   1.000  O 
  C22      1.0000 0.20523  0.04727  0.44667  Biso   1.000  C 
  O22      1.0000 0.19553  0.08617  0.45367  Biso   1.000  O 
  O23      1.0000 0.25737  0.94503  0.17793  Biso   1.000  O 
  Zn10     1.0000 0.31292  0.95088  0.97253  Biso   1.000  Zn
  O24      1.0000 0.38830  0.97900  0.84460  Biso   1.000  O 
  C23      1.0000 0.44810  0.99400  0.92700  Biso   1.000  C 
  C24      1.0000 0.49350  0.99380  0.80700  Biso   1.000  C 
  H2       1.0000 0.48796  0.99155  0.64918  Biso   1.000  H 
  C25      1.0000 0.54080  0.99620  0.88000  Biso   1.000  C 
  C26      1.0000 0.57760  0.98190  0.72900  Biso   1.000  C 
  O25      1.0000 0.56260  0.96930  0.55760  Biso   1.000  O 
  Zn11     1.0000 0.61755  0.97130  0.36080  Biso   1.000  Zn
  O26      1.0000 0.53990  0.88170  0.22600  Biso   1.000  O 
  C27      1.0000 0.49130  0.87190  0.22000  Biso   1.000  C 
  O27      1.0000 0.44270  0.86220  0.21300  Biso   1.000  O 
  Zn12     1.0000 0.69537  0.97958  0.69413  Biso   1.000  Zn
  O28      1.0000 0.78497  0.99153  0.55933  Biso   1.000  O 
  C28      1.0000 0.79477  0.95273  0.55333  Biso   1.000  C 
  O29      1.0000 0.80447  0.91383  0.54633  Biso   1.000  O 
  O30      1.0000 0.74263  0.05497  0.82207  Biso   1.000  O 
  C29      1.0000 0.78743  0.11477  0.73967  Biso   1.000  C 
  C30      1.0000 0.83303  0.16017  0.85967  Biso   1.000  C 
  C31      1.0000 0.87793  0.20747  0.78667  Biso   1.000  C 
  C32      1.0000 0.87923  0.21857  0.59367  Biso   1.000  C 
  O31      1.0000 0.92403  0.27837  0.51127  Biso   1.000  O 
  Zn13     1.0000 0.97130  0.35375  0.63920  Biso   1.000  Zn
  O32      1.0000 0.88170  0.34180  0.77400  Biso   1.000  O 
  C33      1.0000 0.87190  0.38060  0.78000  Biso   1.000  C 
  O33      1.0000 0.86220  0.41950  0.78700  Biso   1.000  O 
  Zn14     1.0000 0.97958  0.28422  0.30587  Biso   1.000  Zn
  O34      1.0000 0.99153  0.20657  0.44067  Biso   1.000  O 
  C34      1.0000 0.95273  0.15797  0.44667  Biso   1.000  C 
  O35      1.0000 0.91383  0.10937  0.45367  Biso   1.000  O 
  Zn15     1.0000 0.04912  0.36203  0.97253  Biso   1.000  Zn
  O36      1.0000 0.97373  0.29747  0.87037  Biso   1.000  O 
  C35      1.0000 0.92903  0.24427  0.93767  Biso   1.000  C 
  O37      1.0000 0.92663  0.22927  0.10907  Biso   1.000  O 
  O38      1.0000 0.02100  0.40930  0.84460  Biso   1.000  O 
  C36      1.0000 0.00600  0.45410  0.92700  Biso   1.000  C 
  C37      1.0000 0.99620  0.45540  0.12000  Biso   1.000  C 
  C38      1.0000 0.98190  0.40430  0.27100  Biso   1.000  C 
  O39      1.0000 0.99040  0.35960  0.20370  Biso   1.000  O 
  O40      1.0000 0.96930  0.40670  0.44240  Biso   1.000  O 
  C39      1.0000 0.99380  0.50030  0.19300  Biso   1.000  C 
  C40      1.0000 0.99400  0.54590  0.07300  Biso   1.000  C 
  O41      1.0000 0.97900  0.59070  0.15540  Biso   1.000  O 
  H3       1.0000 0.99155  0.50359  0.35082  Biso   1.000  H 
  O42      1.0000 0.05497  0.31233  0.17793  Biso   1.000  O 
  C41      1.0000 0.11477  0.32733  0.26033  Biso   1.000  C 
  C42      1.0000 0.16017  0.32713  0.14033  Biso   1.000  C 
  C43      1.0000 0.20747  0.32953  0.21333  Biso   1.000  C 
  C44      1.0000 0.21857  0.33933  0.40633  Biso   1.000  C 
  O43      1.0000 0.27837  0.35433  0.48873  Biso   1.000  O 
  C45      1.0000 0.17317  0.33953  0.52633  Biso   1.000  C 
  H4       1.0000 0.17871  0.34178  0.68415  Biso   1.000  H 
  C46      1.0000 0.12587  0.33713  0.45333  Biso   1.000  C 
  C47      1.0000 0.08907  0.35143  0.60433  Biso   1.000  C 
  O44      1.0000 0.03587  0.34293  0.53703  Biso   1.000  O 
  O45      1.0000 0.10407  0.36403  0.77573  Biso   1.000  O 
  C48      1.0000 0.24427  0.31523  0.06233  Biso   1.000  C 
  O46      1.0000 0.29747  0.32373  0.12963  Biso   1.000  O 
  Zn16     1.0000 0.36203  0.31292  0.02747  Biso   1.000  Zn
  O47      1.0000 0.35960  0.36920  0.79630  Biso   1.000  O 
  O48      1.0000 0.45163  0.32487  0.89267  Biso   1.000  O 
  C49      1.0000 0.46143  0.28607  0.88667  Biso   1.000  C 
  O49      1.0000 0.47113  0.24717  0.87967  Biso   1.000  O 
  O50      1.0000 0.40930  0.38830  0.15540  Biso   1.000  O 
  C50      1.0000 0.45410  0.44810  0.07300  Biso   1.000  C 
  C51      1.0000 0.49970  0.49350  0.19300  Biso   1.000  C 
  H5       1.0000 0.49641  0.48796  0.35082  Biso   1.000  H 
  C52      1.0000 0.54460  0.54080  0.12000  Biso   1.000  C 
  C53      1.0000 0.59570  0.57760  0.27100  Biso   1.000  C 
  O51      1.0000 0.64040  0.63080  0.20370  Biso   1.000  O 
  O52      1.0000 0.59330  0.56260  0.44240  Biso   1.000  O 
  O53      1.0000 0.36403  0.25997  0.22427  Biso   1.000  O 
  C54      1.0000 0.35143  0.26237  0.39567  Biso   1.000  C 
  O54      1.0000 0.34293  0.30707  0.46297  Biso   1.000  O 
  C55      1.0000 0.33713  0.21127  0.54667  Biso   1.000  C 
  C56      1.0000 0.33953  0.16637  0.47367  Biso   1.000  C 
  H6       1.0000 0.34178  0.16307  0.31585  Biso   1.000  H 
  O55      1.0000 0.22927  0.30263  0.89093  Biso   1.000  O 
  H7       1.0000 0.15463  0.32489  0.98251  Biso   1.000  H 
  O56      1.0000 0.12677  0.45163  0.10733  Biso   1.000  O 
  C57      1.0000 0.17537  0.46143  0.11333  Biso   1.000  C 
  O57      1.0000 0.22397  0.47113  0.12033  Biso   1.000  O 
  C58      1.0000 0.83363  0.17317  0.47367  Biso   1.000  C 
  C59      1.0000 0.78873  0.12587  0.54667  Biso   1.000  C 
  C60      1.0000 0.73763  0.08907  0.39567  Biso   1.000  C 
  O58      1.0000 0.69293  0.03587  0.46297  Biso   1.000  O 
  O59      1.0000 0.74003  0.10407  0.22427  Biso   1.000  O 
  Zn17     1.0000 0.68708  0.04912  0.02747  Biso   1.000  Zn
  O60      1.0000 0.67627  0.97373  0.12963  Biso   1.000  O 
  C61      1.0000 0.68477  0.92903  0.06233  Biso   1.000  C 
  O61      1.0000 0.69737  0.92663  0.89093  Biso   1.000  O 
  C62      1.0000 0.67047  0.87793  0.21333  Biso   1.000  C 
  C63      1.0000 0.66067  0.87923  0.40633  Biso   1.000  C 
  O62      1.0000 0.64567  0.92403  0.48873  Biso   1.000  O 
  C64      1.0000 0.66047  0.83363  0.52633  Biso   1.000  C 
  H8       1.0000 0.65822  0.83693  0.68415  Biso   1.000  H 
  C65      1.0000 0.66287  0.78873  0.45333  Biso   1.000  C 
  C66      1.0000 0.64857  0.73763  0.60433  Biso   1.000  C 
  O63      1.0000 0.65707  0.69293  0.53703  Biso   1.000  O 
  O64      1.0000 0.63597  0.74003  0.77573  Biso   1.000  O 
  C67      1.0000 0.67267  0.78743  0.26033  Biso   1.000  C 
  O65      1.0000 0.68767  0.74263  0.17793  Biso   1.000  O 
  C68      1.0000 0.67287  0.83303  0.14033  Biso   1.000  C 
  H9       1.0000 0.67511  0.82974  0.98251  Biso   1.000  H 
  O66      1.0000 0.67513  0.12677  0.89267  Biso   1.000  O 
  C69      1.0000 0.71393  0.17537  0.88667  Biso   1.000  C 
  O67      1.0000 0.75283  0.22397  0.87967  Biso   1.000  O 
  O68      1.0000 0.63080  0.99040  0.79630  Biso   1.000  O 
  O69      1.0000 0.61170  0.02100  0.15540  Biso   1.000  O 
  C70      1.0000 0.55190  0.00600  0.07300  Biso   1.000  C 
  C71      1.0000 0.50650  0.00620  0.19300  Biso   1.000  C 
  C72      1.0000 0.45920  0.00380  0.12000  Biso   1.000  C 
  C73      1.0000 0.42240  0.01810  0.27100  Biso   1.000  C 
  O70      1.0000 0.36920  0.00960  0.20370  Biso   1.000  O 
  O71      1.0000 0.43740  0.03070  0.44240  Biso   1.000  O 
  Zn18     1.0000 0.38245  0.02870  0.63920  Biso   1.000  Zn
  O72      1.0000 0.46010  0.11830  0.77400  Biso   1.000  O 
  C74      1.0000 0.50870  0.12810  0.78000  Biso   1.000  C 
  O73      1.0000 0.55730  0.13780  0.78700  Biso   1.000  O 
  O74      1.0000 0.30707  0.96413  0.53703  Biso   1.000  O 
  C75      1.0000 0.26237  0.91093  0.60433  Biso   1.000  C 
  O75      1.0000 0.25997  0.89593  0.77573  Biso   1.000  O 
  C76      1.0000 0.21127  0.87413  0.45333  Biso   1.000  C 
  C77      1.0000 0.21257  0.88523  0.26033  Biso   1.000  C 
  C78      1.0000 0.16697  0.83983  0.14033  Biso   1.000  C 
  C79      1.0000 0.12207  0.79253  0.21333  Biso   1.000  C 
  C80      1.0000 0.07097  0.75573  0.06233  Biso   1.000  C 
  O76      1.0000 0.02627  0.70253  0.12963  Biso   1.000  O 
  O77      1.0000 0.07337  0.77073  0.89093  Biso   1.000  O 
  C81      1.0000 0.12077  0.78143  0.40633  Biso   1.000  C 
  O78      1.0000 0.07597  0.72163  0.48873  Biso   1.000  O 
  C82      1.0000 0.16637  0.82683  0.52633  Biso   1.000  C 
  H10      1.0000 0.16307  0.82129  0.68415  Biso   1.000  H 
  H11      1.0000 0.17026  0.84537  0.98251  Biso   1.000  H 
  O79      1.0000 0.32373  0.02627  0.87037  Biso   1.000  O 
  C83      1.0000 0.31523  0.07097  0.93767  Biso   1.000  C 
  O80      1.0000 0.30263  0.07337  0.10907  Biso   1.000  O 
  H12      1.0000 0.51204  0.00845  0.35082  Biso   1.000  H 
  H13      1.0000 0.83693  0.17871  0.31585  Biso   1.000  H 
  H14      1.0000 0.82974  0.15463  0.01749  Biso   1.000  H 
  O81      1.0000 0.32487  0.87323  0.10733  Biso   1.000  O 
  C84      1.0000 0.28607  0.82463  0.11333  Biso   1.000  C 
  O82      1.0000 0.24717  0.77603  0.12033  Biso   1.000  O 
  H15      1.0000 0.32489  0.17026  0.01749  Biso   1.000  H 
  O83      1.0000 0.34180  0.46010  0.22600  Biso   1.000  O 
  C85      1.0000 0.38060  0.50870  0.22000  Biso   1.000  C 
  O84      1.0000 0.41950  0.55730  0.21300  Biso   1.000  O 
  O85      1.0000 0.54837  0.67513  0.10733  Biso   1.000  O 
  C86      1.0000 0.53857  0.71393  0.11333  Biso   1.000  C 
  O86      1.0000 0.52887  0.75283  0.12033  Biso   1.000  O 
  O87      1.0000 0.72163  0.64567  0.51127  Biso   1.000  O 
  C87      1.0000 0.78143  0.66067  0.59367  Biso   1.000  C 
  C88      1.0000 0.82683  0.66047  0.47367  Biso   1.000  C 
  H16      1.0000 0.82129  0.65822  0.31585  Biso   1.000  H 
  C89      1.0000 0.87413  0.66287  0.54667  Biso   1.000  C 
  O88      1.0000 0.77073  0.69737  0.10907  Biso   1.000  O 
  H17      1.0000 0.84537  0.67511  0.01749  Biso   1.000  H 
  O89      1.0000 0.11830  0.65820  0.22600  Biso   1.000  O 
  C90      1.0000 0.12810  0.61940  0.22000  Biso   1.000  C 
  O90      1.0000 0.13780  0.58050  0.21300  Biso   1.000  O 
  H18      1.0000 0.00845  0.49641  0.64918  Biso   1.000  H 
