data_image0
_cell_length_a       25.8923
_cell_length_b       25.8923
_cell_length_c       6.86923
_cell_angle_alpha    90
_cell_angle_beta     90
_cell_angle_gamma    120

_symmetry_space_group_name_H-M    "P 1"
_symmetry_int_tables_number       1

loop_
  _symmetry_equiv_pos_as_xyz
  'x, y, z'

loop_
  _atom_site_label
  _atom_site_occupancy
  _atom_site_fract_x
  _atom_site_fract_y
  _atom_site_fract_z
  _atom_site_thermal_displace_type
  _atom_site_B_iso_or_equiv
  _atom_site_type_symbol
  C1       1.0000 0.00720  0.49950  0.80600  Biso   1.000  C 
  C2       1.0000 0.00370  0.54430  0.87800  Biso   1.000  C 
  C3       1.0000 0.01770  0.59510  0.72800  Biso   1.000  C 
  O1       1.0000 0.03070  0.59270  0.55530  Biso   1.000  O 
  Zn1      1.0000 0.02864  0.64577  0.35860  Biso   1.000  Zn
  Zn2      1.0000 0.02090  0.71620  0.69193  Biso   1.000  Zn
  O2       1.0000 0.01267  0.79913  0.55833  Biso   1.000  O 
  C4       1.0000 0.04947  0.84693  0.53233  Biso   1.000  C 
  O3       1.0000 0.08627  0.89473  0.50633  Biso   1.000  O 
  O4       1.0000 0.96443  0.65647  0.46397  Biso   1.000  O 
  C5       1.0000 0.91073  0.64897  0.39467  Biso   1.000  C 
  O5       1.0000 0.89533  0.63597  0.22197  Biso   1.000  O 
  Zn3      1.0000 0.95046  0.63803  0.02527  Biso   1.000  Zn
  O6       1.0000 0.01020  0.64130  0.79730  Biso   1.000  O 
  O7       1.0000 0.86753  0.54687  0.89167  Biso   1.000  O 
  C6       1.0000 0.81973  0.53587  0.86567  Biso   1.000  C 
  O8       1.0000 0.77193  0.52487  0.83967  Biso   1.000  O 
  O9       1.0000 0.94543  0.68827  0.82267  Biso   1.000  O 
  C7       1.0000 0.88623  0.67447  0.74067  Biso   1.000  C 
  C8       1.0000 0.84103  0.67387  0.86067  Biso   1.000  C 
  C9       1.0000 0.79273  0.67037  0.78867  Biso   1.000  C 
  C10      1.0000 0.75593  0.68437  0.93867  Biso   1.000  C 
  O10      1.0000 0.70223  0.67687  0.86937  Biso   1.000  O 
  Zn4      1.0000 0.64577  0.61713  0.64140  Biso   1.000  Zn
  O11      1.0000 0.65400  0.53420  0.77500  Biso   1.000  O 
  C11      1.0000 0.61720  0.48640  0.80100  Biso   1.000  C 
  O12      1.0000 0.58040  0.43860  0.82700  Biso   1.000  O 
  Zn5      1.0000 0.63803  0.68756  0.97473  Biso   1.000  Zn
  O13      1.0000 0.59050  0.61210  0.84400  Biso   1.000  O 
  C12      1.0000 0.54510  0.55290  0.92600  Biso   1.000  C 
  C13      1.0000 0.50050  0.50770  0.80600  Biso   1.000  C 
  C14      1.0000 0.45570  0.45940  0.87800  Biso   1.000  C 
  C15      1.0000 0.40490  0.42260  0.72800  Biso   1.000  C 
  O14      1.0000 0.40730  0.43800  0.55530  Biso   1.000  O 
  Zn6      1.0000 0.35423  0.38287  0.35860  Biso   1.000  Zn
  Zn7      1.0000 0.28380  0.30469  0.69193  Biso   1.000  Zn
  O15      1.0000 0.20087  0.21353  0.55833  Biso   1.000  O 
  C16      1.0000 0.15307  0.20253  0.53233  Biso   1.000  C 
  O16      1.0000 0.10527  0.19153  0.50633  Biso   1.000  O 
  O17      1.0000 0.31173  0.25717  0.82267  Biso   1.000  O 
  C17      1.0000 0.32553  0.21177  0.74067  Biso   1.000  C 
  C18      1.0000 0.32613  0.16717  0.86067  Biso   1.000  C 
  C19      1.0000 0.32963  0.12237  0.78867  Biso   1.000  C 
  C20      1.0000 0.31563  0.07157  0.93867  Biso   1.000  C 
  O18      1.0000 0.32313  0.02537  0.86937  Biso   1.000  O 
  Zn8      1.0000 0.38287  0.02864  0.64140  Biso   1.000  Zn
  Zn9      1.0000 0.30469  0.02090  0.30807  Biso   1.000  Zn
  O19      1.0000 0.21353  0.01267  0.44167  Biso   1.000  O 
  C21      1.0000 0.20253  0.04947  0.46767  Biso   1.000  C 
  O20      1.0000 0.19153  0.08627  0.49367  Biso   1.000  O 
  O21      1.0000 0.25717  0.94543  0.17733  Biso   1.000  O 
  Zn10     1.0000 0.31244  0.95046  0.97473  Biso   1.000  Zn
  O22      1.0000 0.38790  0.97840  0.84400  Biso   1.000  O 
  C22      1.0000 0.44710  0.99220  0.92600  Biso   1.000  C 
  C23      1.0000 0.49230  0.99280  0.80600  Biso   1.000  C 
  H1       1.0000 0.48633  0.99025  0.64868  Biso   1.000  H 
  C24      1.0000 0.54060  0.99630  0.87800  Biso   1.000  C 
  C25      1.0000 0.57740  0.98230  0.72800  Biso   1.000  C 
  O23      1.0000 0.56200  0.96930  0.55530  Biso   1.000  O 
  Zn11     1.0000 0.61713  0.97136  0.35860  Biso   1.000  Zn
  O24      1.0000 0.53420  0.88020  0.22500  Biso   1.000  O 
  C26      1.0000 0.48640  0.86920  0.19900  Biso   1.000  C 
  O25      1.0000 0.43860  0.85820  0.17300  Biso   1.000  O 
  Zn12     1.0000 0.69531  0.97910  0.69193  Biso   1.000  Zn
  O26      1.0000 0.78647  0.98733  0.55833  Biso   1.000  O 
  C27      1.0000 0.79747  0.95053  0.53233  Biso   1.000  C 
  O27      1.0000 0.80847  0.91373  0.50633  Biso   1.000  O 
  O28      1.0000 0.74283  0.05457  0.82267  Biso   1.000  O 
  C28      1.0000 0.78823  0.11377  0.74067  Biso   1.000  C 
  C29      1.0000 0.83283  0.15897  0.86067  Biso   1.000  C 
  C30      1.0000 0.87763  0.20727  0.78867  Biso   1.000  C 
  C31      1.0000 0.87843  0.21957  0.59267  Biso   1.000  C 
  O29      1.0000 0.92383  0.27877  0.51067  Biso   1.000  O 
  Zn13     1.0000 0.97136  0.35423  0.64140  Biso   1.000  Zn
  O30      1.0000 0.88020  0.34600  0.77500  Biso   1.000  O 
  C32      1.0000 0.86920  0.38280  0.80100  Biso   1.000  C 
  O31      1.0000 0.85820  0.41960  0.82700  Biso   1.000  O 
  Zn14     1.0000 0.97910  0.28380  0.30807  Biso   1.000  Zn
  O32      1.0000 0.98733  0.20087  0.44167  Biso   1.000  O 
  C33      1.0000 0.95053  0.15307  0.46767  Biso   1.000  C 
  O33      1.0000 0.91373  0.10527  0.49367  Biso   1.000  O 
  Zn15     1.0000 0.04954  0.36197  0.97473  Biso   1.000  Zn
  O34      1.0000 0.97463  0.29777  0.86937  Biso   1.000  O 
  C34      1.0000 0.92843  0.24407  0.93867  Biso   1.000  C 
  O35      1.0000 0.92603  0.22867  0.11137  Biso   1.000  O 
  O36      1.0000 0.02160  0.40950  0.84400  Biso   1.000  O 
  C35      1.0000 0.00780  0.45490  0.92600  Biso   1.000  C 
  C36      1.0000 0.99630  0.45570  0.12200  Biso   1.000  C 
  C37      1.0000 0.98230  0.40490  0.27200  Biso   1.000  C 
  O37      1.0000 0.98980  0.35870  0.20270  Biso   1.000  O 
  O38      1.0000 0.96930  0.40730  0.44470  Biso   1.000  O 
  C38      1.0000 0.99280  0.50050  0.19400  Biso   1.000  C 
  C39      1.0000 0.99220  0.54510  0.07400  Biso   1.000  C 
  O39      1.0000 0.97840  0.59050  0.15600  Biso   1.000  O 
  H2       1.0000 0.99025  0.50392  0.35132  Biso   1.000  H 
  O40      1.0000 0.05457  0.31173  0.17733  Biso   1.000  O 
  C40      1.0000 0.11377  0.32553  0.25933  Biso   1.000  C 
  C41      1.0000 0.15897  0.32613  0.13933  Biso   1.000  C 
  C42      1.0000 0.20727  0.32963  0.21133  Biso   1.000  C 
  C43      1.0000 0.21957  0.34113  0.40733  Biso   1.000  C 
  O41      1.0000 0.27877  0.35493  0.48933  Biso   1.000  O 
  C44      1.0000 0.17437  0.34053  0.52733  Biso   1.000  C 
  C45      1.0000 0.12607  0.33703  0.45533  Biso   1.000  C 
  C46      1.0000 0.08927  0.35103  0.60533  Biso   1.000  C 
  O42      1.0000 0.03557  0.34353  0.53603  Biso   1.000  O 
  O43      1.0000 0.10467  0.36403  0.77803  Biso   1.000  O 
  H3       1.0000 0.18034  0.34309  0.68465  Biso   1.000  H 
  C47      1.0000 0.24407  0.31563  0.06133  Biso   1.000  C 
  O44      1.0000 0.29777  0.32313  0.13063  Biso   1.000  O 
  Zn16     1.0000 0.36197  0.31244  0.02527  Biso   1.000  Zn
  O45      1.0000 0.35870  0.36890  0.79730  Biso   1.000  O 
  O46      1.0000 0.45313  0.32067  0.89167  Biso   1.000  O 
  C48      1.0000 0.46413  0.28387  0.86567  Biso   1.000  C 
  O47      1.0000 0.47513  0.24707  0.83967  Biso   1.000  O 
  O48      1.0000 0.40950  0.38790  0.15600  Biso   1.000  O 
  C49      1.0000 0.45490  0.44710  0.07400  Biso   1.000  C 
  C50      1.0000 0.49950  0.49230  0.19400  Biso   1.000  C 
  H4       1.0000 0.49608  0.48633  0.35132  Biso   1.000  H 
  C51      1.0000 0.54430  0.54060  0.12200  Biso   1.000  C 
  C52      1.0000 0.59510  0.57740  0.27200  Biso   1.000  C 
  O49      1.0000 0.64130  0.63110  0.20270  Biso   1.000  O 
  Zn17     1.0000 0.71620  0.69531  0.30807  Biso   1.000  Zn
  O50      1.0000 0.79913  0.78647  0.44167  Biso   1.000  O 
  C53      1.0000 0.84693  0.79747  0.46767  Biso   1.000  C 
  O51      1.0000 0.89473  0.80847  0.49367  Biso   1.000  O 
  O52      1.0000 0.68827  0.74283  0.17733  Biso   1.000  O 
  C54      1.0000 0.67447  0.78823  0.25933  Biso   1.000  C 
  C55      1.0000 0.67387  0.83283  0.13933  Biso   1.000  C 
  C56      1.0000 0.67037  0.87763  0.21133  Biso   1.000  C 
  C57      1.0000 0.68437  0.92843  0.06133  Biso   1.000  C 
  O53      1.0000 0.67687  0.97463  0.13063  Biso   1.000  O 
  Zn18     1.0000 0.68756  0.04954  0.02527  Biso   1.000  Zn
  O54      1.0000 0.67933  0.13247  0.89167  Biso   1.000  O 
  C58      1.0000 0.71613  0.18027  0.86567  Biso   1.000  C 
  O55      1.0000 0.75293  0.22807  0.83967  Biso   1.000  O 
  O56      1.0000 0.63110  0.98980  0.79730  Biso   1.000  O 
  O57      1.0000 0.61210  0.02160  0.15600  Biso   1.000  O 
  C59      1.0000 0.55290  0.00780  0.07400  Biso   1.000  C 
  C60      1.0000 0.50770  0.00720  0.19400  Biso   1.000  C 
  C61      1.0000 0.45940  0.00370  0.12200  Biso   1.000  C 
  C62      1.0000 0.42260  0.01770  0.27200  Biso   1.000  C 
  O58      1.0000 0.36890  0.01020  0.20270  Biso   1.000  O 
  O59      1.0000 0.43800  0.03070  0.44470  Biso   1.000  O 
  H5       1.0000 0.51367  0.00975  0.35132  Biso   1.000  H 
  O60      1.0000 0.74063  0.10467  0.22197  Biso   1.000  O 
  C63      1.0000 0.73823  0.08927  0.39467  Biso   1.000  C 
  O61      1.0000 0.69203  0.03557  0.46397  Biso   1.000  O 
  C64      1.0000 0.78903  0.12607  0.54467  Biso   1.000  C 
  C65      1.0000 0.83383  0.17437  0.47267  Biso   1.000  C 
  H6       1.0000 0.83726  0.18034  0.31535  Biso   1.000  H 
  O62      1.0000 0.69737  0.92603  0.88863  Biso   1.000  O 
  C66      1.0000 0.65887  0.87843  0.40733  Biso   1.000  C 
  O63      1.0000 0.64507  0.92383  0.48933  Biso   1.000  O 
  C67      1.0000 0.65947  0.83383  0.52733  Biso   1.000  C 
  H7       1.0000 0.65691  0.83726  0.68465  Biso   1.000  H 
  C68      1.0000 0.66297  0.78903  0.45533  Biso   1.000  C 
  C69      1.0000 0.64897  0.73823  0.60533  Biso   1.000  C 
  O64      1.0000 0.65647  0.69203  0.53603  Biso   1.000  O 
  O65      1.0000 0.63597  0.74063  0.77803  Biso   1.000  O 
  H8       1.0000 0.67642  0.82941  0.98201  Biso   1.000  H 
  O66      1.0000 0.72123  0.64507  0.51067  Biso   1.000  O 
  C70      1.0000 0.78043  0.65887  0.59267  Biso   1.000  C 
  C71      1.0000 0.82563  0.65947  0.47267  Biso   1.000  C 
  H9       1.0000 0.81966  0.65691  0.31535  Biso   1.000  H 
  C72      1.0000 0.87393  0.66297  0.54467  Biso   1.000  C 
  O67      1.0000 0.77133  0.69737  0.11137  Biso   1.000  O 
  O68      1.0000 0.59270  0.56200  0.44470  Biso   1.000  O 
  O69      1.0000 0.36403  0.25937  0.22197  Biso   1.000  O 
  C73      1.0000 0.35103  0.26177  0.39467  Biso   1.000  C 
  O70      1.0000 0.34353  0.30797  0.46397  Biso   1.000  O 
  C74      1.0000 0.33703  0.21097  0.54467  Biso   1.000  C 
  C75      1.0000 0.34053  0.16617  0.47267  Biso   1.000  C 
  H10      1.0000 0.34309  0.16274  0.31535  Biso   1.000  H 
  C76      1.0000 0.34113  0.12157  0.59267  Biso   1.000  C 
  O71      1.0000 0.35493  0.07617  0.51067  Biso   1.000  O 
  O72      1.0000 0.22867  0.30263  0.88863  Biso   1.000  O 
  H11      1.0000 0.15299  0.32358  0.98201  Biso   1.000  H 
  O73      1.0000 0.13247  0.45313  0.10833  Biso   1.000  O 
  C77      1.0000 0.18027  0.46413  0.13433  Biso   1.000  C 
  O74      1.0000 0.22807  0.47513  0.16033  Biso   1.000  O 
  H12      1.0000 0.82941  0.15299  0.01799  Biso   1.000  H 
  O75      1.0000 0.25937  0.89533  0.77803  Biso   1.000  O 
  C78      1.0000 0.26177  0.91073  0.60533  Biso   1.000  C 
  O76      1.0000 0.30797  0.96443  0.53603  Biso   1.000  O 
  C79      1.0000 0.21097  0.87393  0.45533  Biso   1.000  C 
  C80      1.0000 0.21177  0.88623  0.25933  Biso   1.000  C 
  C81      1.0000 0.16717  0.84103  0.13933  Biso   1.000  C 
  C82      1.0000 0.12237  0.79273  0.21133  Biso   1.000  C 
  C83      1.0000 0.07157  0.75593  0.06133  Biso   1.000  C 
  O77      1.0000 0.02537  0.70223  0.13063  Biso   1.000  O 
  O78      1.0000 0.07397  0.77133  0.88863  Biso   1.000  O 
  C84      1.0000 0.12157  0.78043  0.40733  Biso   1.000  C 
  O79      1.0000 0.07617  0.72123  0.48933  Biso   1.000  O 
  C85      1.0000 0.16617  0.82563  0.52733  Biso   1.000  C 
  H13      1.0000 0.16274  0.81966  0.68465  Biso   1.000  H 
  H14      1.0000 0.17059  0.84701  0.98201  Biso   1.000  H 
  O80      1.0000 0.32067  0.86753  0.10833  Biso   1.000  O 
  C86      1.0000 0.28387  0.81973  0.13433  Biso   1.000  C 
  O81      1.0000 0.24707  0.77193  0.16033  Biso   1.000  O 
  O82      1.0000 0.30263  0.07397  0.11137  Biso   1.000  O 
  O83      1.0000 0.46580  0.11980  0.77500  Biso   1.000  O 
  C87      1.0000 0.51360  0.13080  0.80100  Biso   1.000  C 
  O84      1.0000 0.56140  0.14180  0.82700  Biso   1.000  O 
  H15      1.0000 0.32358  0.17059  0.01799  Biso   1.000  H 
  O85      1.0000 0.34600  0.46580  0.22500  Biso   1.000  O 
  C88      1.0000 0.38280  0.51360  0.19900  Biso   1.000  C 
  O86      1.0000 0.41960  0.56140  0.17300  Biso   1.000  O 
  H16      1.0000 0.50392  0.51367  0.64868  Biso   1.000  H 
  O87      1.0000 0.54687  0.67933  0.10833  Biso   1.000  O 
  C89      1.0000 0.53587  0.71613  0.13433  Biso   1.000  C 
  O88      1.0000 0.52487  0.75293  0.16033  Biso   1.000  O 
  H17      1.0000 0.84701  0.67642  0.01799  Biso   1.000  H 
  O89      1.0000 0.11980  0.65400  0.22500  Biso   1.000  O 
  C90      1.0000 0.13080  0.61720  0.19900  Biso   1.000  C 
  O90      1.0000 0.14180  0.58040  0.17300  Biso   1.000  O 
  H18      1.0000 0.00975  0.49608  0.64868  Biso   1.000  H 
