data_image0
_cell_length_a       25.908
_cell_length_b       25.908
_cell_length_c       6.8599
_cell_angle_alpha    90
_cell_angle_beta     90
_cell_angle_gamma    120

_symmetry_space_group_name_H-M    "P 1"
_symmetry_int_tables_number       1

loop_
  _symmetry_equiv_pos_as_xyz
  'x, y, z'

loop_
  _atom_site_label
  _atom_site_occupancy
  _atom_site_fract_x
  _atom_site_fract_y
  _atom_site_fract_z
  _atom_site_thermal_displace_type
  _atom_site_B_iso_or_equiv
  _atom_site_type_symbol
  C1       1.0000 0.00630  0.49960  0.80700  Biso   1.000  C 
  H1       1.0000 0.00850  0.49615  0.64935  Biso   1.000  H 
  C2       1.0000 0.00370  0.54440  0.87900  Biso   1.000  C 
  C3       1.0000 0.01810  0.59560  0.72900  Biso   1.000  C 
  O1       1.0000 0.03070  0.59310  0.55750  Biso   1.000  O 
  Zn1      1.0000 0.02883  0.64603  0.35970  Biso   1.000  Zn
  Zn2      1.0000 0.02064  0.71613  0.69303  Biso   1.000  Zn
  O2       1.0000 0.00967  0.79593  0.56133  Biso   1.000  O 
  C4       1.0000 0.04877  0.84583  0.54733  Biso   1.000  C 
  O3       1.0000 0.08787  0.89563  0.53333  Biso   1.000  O 
  Zn3      1.0000 0.95053  0.63784  0.02637  Biso   1.000  Zn
  O4       1.0000 0.02607  0.70303  0.12983  Biso   1.000  O 
  C5       1.0000 0.07107  0.75583  0.06233  Biso   1.000  C 
  C6       1.0000 0.12227  0.79263  0.21233  Biso   1.000  C 
  C7       1.0000 0.12097  0.78123  0.40633  Biso   1.000  C 
  O5       1.0000 0.07607  0.72123  0.48923  Biso   1.000  O 
  C8       1.0000 0.16627  0.82663  0.52633  Biso   1.000  C 
  H2       1.0000 0.16281  0.82098  0.68398  Biso   1.000  H 
  C9       1.0000 0.21107  0.87403  0.45433  Biso   1.000  C 
  C10      1.0000 0.21237  0.88543  0.26033  Biso   1.000  C 
  O6       1.0000 0.25727  0.94543  0.17743  Biso   1.000  O 
  Zn4      1.0000 0.30450  0.02064  0.30697  Biso   1.000  Zn
  O7       1.0000 0.21373  0.00967  0.43867  Biso   1.000  O 
  C11      1.0000 0.20293  0.04877  0.45267  Biso   1.000  C 
  O8       1.0000 0.19223  0.08787  0.46667  Biso   1.000  O 
  O9       1.0000 0.35483  0.07607  0.51077  Biso   1.000  O 
  Zn5      1.0000 0.38280  0.02883  0.64030  Biso   1.000  Zn
  O10      1.0000 0.46260  0.11960  0.77200  Biso   1.000  O 
  C12      1.0000 0.51250  0.13040  0.78600  Biso   1.000  C 
  O11      1.0000 0.56230  0.14110  0.80000  Biso   1.000  O 
  O12      1.0000 0.38790  0.97850  0.84410  Biso   1.000  O 
  Zn6      1.0000 0.31270  0.95053  0.97363  Biso   1.000  Zn
  O13      1.0000 0.32303  0.02607  0.87017  Biso   1.000  O 
  C13      1.0000 0.31523  0.07107  0.93767  Biso   1.000  C 
  O14      1.0000 0.30263  0.07357  0.10917  Biso   1.000  O 
  C14      1.0000 0.32963  0.12227  0.78767  Biso   1.000  C 
  C15      1.0000 0.33973  0.12097  0.59367  Biso   1.000  C 
  C16      1.0000 0.33963  0.16627  0.47367  Biso   1.000  C 
  C17      1.0000 0.33703  0.21107  0.54567  Biso   1.000  C 
  C18      1.0000 0.32693  0.21237  0.73967  Biso   1.000  C 
  O15      1.0000 0.31183  0.25727  0.82257  Biso   1.000  O 
  Zn7      1.0000 0.28387  0.30450  0.69303  Biso   1.000  Zn
  O16      1.0000 0.20407  0.21373  0.56133  Biso   1.000  O 
  C19      1.0000 0.15417  0.20293  0.54733  Biso   1.000  C 
  O17      1.0000 0.10437  0.19223  0.53333  Biso   1.000  O 
  Zn8      1.0000 0.36216  0.31270  0.02637  Biso   1.000  Zn
  O18      1.0000 0.40940  0.38790  0.15590  Biso   1.000  O 
  Zn9      1.0000 0.35397  0.38280  0.35970  Biso   1.000  Zn
  O19      1.0000 0.34300  0.46260  0.22800  Biso   1.000  O 
  C20      1.0000 0.38210  0.51250  0.21400  Biso   1.000  C 
  O20      1.0000 0.42120  0.56230  0.20000  Biso   1.000  O 
  O21      1.0000 0.27877  0.35483  0.48923  Biso   1.000  O 
  C21      1.0000 0.21877  0.33973  0.40633  Biso   1.000  C 
  C22      1.0000 0.17337  0.33963  0.52633  Biso   1.000  C 
  C23      1.0000 0.12597  0.33703  0.45433  Biso   1.000  C 
  C24      1.0000 0.11457  0.32693  0.26033  Biso   1.000  C 
  O22      1.0000 0.05457  0.31183  0.17743  Biso   1.000  O 
  Zn10     1.0000 0.04947  0.36216  0.97363  Biso   1.000  Zn
  O23      1.0000 0.98970  0.35940  0.20350  Biso   1.000  O 
  Zn11     1.0000 0.97936  0.28387  0.30697  Biso   1.000  Zn
  O24      1.0000 0.99033  0.20407  0.43867  Biso   1.000  O 
  C25      1.0000 0.95123  0.15417  0.45267  Biso   1.000  C 
  O25      1.0000 0.91213  0.10437  0.46667  Biso   1.000  O 
  O26      1.0000 0.03637  0.34363  0.53683  Biso   1.000  O 
  C26      1.0000 0.08917  0.35143  0.60433  Biso   1.000  C 
  O27      1.0000 0.10427  0.36403  0.77583  Biso   1.000  O 
  Zn12     1.0000 0.97117  0.35397  0.64030  Biso   1.000  Zn
  O28      1.0000 0.88040  0.34300  0.77200  Biso   1.000  O 
  C27      1.0000 0.86960  0.38210  0.78600  Biso   1.000  C 
  O29      1.0000 0.85890  0.42120  0.80000  Biso   1.000  O 
  O30      1.0000 0.02150  0.40940  0.84410  Biso   1.000  O 
  C28      1.0000 0.00640  0.45430  0.92700  Biso   1.000  C 
  C29      1.0000 0.99630  0.45560  0.12100  Biso   1.000  C 
  C30      1.0000 0.98190  0.40440  0.27100  Biso   1.000  C 
  O31      1.0000 0.96930  0.40690  0.44250  Biso   1.000  O 
  C31      1.0000 0.99370  0.50040  0.19300  Biso   1.000  C 
  C32      1.0000 0.99360  0.54570  0.07300  Biso   1.000  C 
  O32      1.0000 0.97850  0.59060  0.15590  Biso   1.000  O 
  H3       1.0000 0.99150  0.50385  0.35065  Biso   1.000  H 
  O33      1.0000 0.92393  0.27877  0.51077  Biso   1.000  O 
  C33      1.0000 0.87903  0.21877  0.59367  Biso   1.000  C 
  C34      1.0000 0.83373  0.17337  0.47367  Biso   1.000  C 
  C35      1.0000 0.78893  0.12597  0.54567  Biso   1.000  C 
  C36      1.0000 0.73773  0.08917  0.39567  Biso   1.000  C 
  O34      1.0000 0.74023  0.10427  0.22417  Biso   1.000  O 
  Zn13     1.0000 0.68730  0.04947  0.02637  Biso   1.000  Zn
  O35      1.0000 0.61210  0.02150  0.15590  Biso   1.000  O 
  C37      1.0000 0.55210  0.00640  0.07300  Biso   1.000  C 
  C38      1.0000 0.50670  0.00630  0.19300  Biso   1.000  C 
  C39      1.0000 0.45930  0.00370  0.12100  Biso   1.000  C 
  C40      1.0000 0.42250  0.01810  0.27100  Biso   1.000  C 
  O36      1.0000 0.36970  0.01030  0.20350  Biso   1.000  O 
  O37      1.0000 0.43760  0.03070  0.44250  Biso   1.000  O 
  C41      1.0000 0.44790  0.99360  0.92700  Biso   1.000  C 
  C42      1.0000 0.49330  0.99370  0.80700  Biso   1.000  C 
  H4       1.0000 0.48765  0.99150  0.64935  Biso   1.000  H 
  C43      1.0000 0.54070  0.99630  0.87900  Biso   1.000  C 
  C44      1.0000 0.57750  0.98190  0.72900  Biso   1.000  C 
  O38      1.0000 0.56240  0.96930  0.55750  Biso   1.000  O 
  Zn14     1.0000 0.61720  0.97117  0.35970  Biso   1.000  Zn
  O39      1.0000 0.53740  0.88040  0.22800  Biso   1.000  O 
  C45      1.0000 0.48750  0.86960  0.21400  Biso   1.000  C 
  O40      1.0000 0.43770  0.85890  0.20000  Biso   1.000  O 
  Zn15     1.0000 0.69550  0.97936  0.69303  Biso   1.000  Zn
  O41      1.0000 0.78627  0.99033  0.56133  Biso   1.000  O 
  C46      1.0000 0.79707  0.95123  0.54733  Biso   1.000  C 
  O42      1.0000 0.80777  0.91213  0.53333  Biso   1.000  O 
  O43      1.0000 0.74273  0.05457  0.82257  Biso   1.000  O 
  C47      1.0000 0.78763  0.11457  0.73967  Biso   1.000  C 
  C48      1.0000 0.83293  0.15997  0.85967  Biso   1.000  C 
  C49      1.0000 0.87773  0.20737  0.78767  Biso   1.000  C 
  C50      1.0000 0.92893  0.24417  0.93767  Biso   1.000  C 
  O44      1.0000 0.97393  0.29697  0.87017  Biso   1.000  O 
  O45      1.0000 0.92643  0.22907  0.10917  Biso   1.000  O 
  H5       1.0000 0.82948  0.15432  0.01732  Biso   1.000  H 
  O46      1.0000 0.69273  0.03637  0.46317  Biso   1.000  O 
  O47      1.0000 0.64517  0.92393  0.48923  Biso   1.000  O 
  C51      1.0000 0.66027  0.87903  0.40633  Biso   1.000  C 
  C52      1.0000 0.66037  0.83373  0.52633  Biso   1.000  C 
  H6       1.0000 0.65817  0.83719  0.68398  Biso   1.000  H 
  C53      1.0000 0.66297  0.78893  0.45433  Biso   1.000  C 
  C54      1.0000 0.67307  0.78763  0.26033  Biso   1.000  C 
  O48      1.0000 0.68817  0.74273  0.17743  Biso   1.000  O 
  Zn16     1.0000 0.71613  0.69550  0.30697  Biso   1.000  Zn
  O49      1.0000 0.79593  0.78627  0.43867  Biso   1.000  O 
  C55      1.0000 0.84583  0.79707  0.45267  Biso   1.000  C 
  O50      1.0000 0.89563  0.80777  0.46667  Biso   1.000  O 
  O51      1.0000 0.72123  0.64517  0.51077  Biso   1.000  O 
  Zn17     1.0000 0.64603  0.61720  0.64030  Biso   1.000  Zn
  O52      1.0000 0.65700  0.53740  0.77200  Biso   1.000  O 
  C56      1.0000 0.61790  0.48750  0.78600  Biso   1.000  C 
  O53      1.0000 0.57880  0.43770  0.80000  Biso   1.000  O 
  Zn18     1.0000 0.63784  0.68730  0.97363  Biso   1.000  Zn
  O54      1.0000 0.54707  0.67633  0.10533  Biso   1.000  O 
  C57      1.0000 0.53627  0.71543  0.11933  Biso   1.000  C 
  O55      1.0000 0.52557  0.75453  0.13333  Biso   1.000  O 
  O56      1.0000 0.64060  0.63030  0.20350  Biso   1.000  O 
  C58      1.0000 0.59560  0.57750  0.27100  Biso   1.000  C 
  O57      1.0000 0.59310  0.56240  0.44250  Biso   1.000  O 
  C59      1.0000 0.54440  0.54070  0.12100  Biso   1.000  C 
  C60      1.0000 0.49960  0.49330  0.19300  Biso   1.000  C 
  C61      1.0000 0.45430  0.44790  0.07300  Biso   1.000  C 
  C62      1.0000 0.45560  0.45930  0.87900  Biso   1.000  C 
  C63      1.0000 0.40440  0.42250  0.72900  Biso   1.000  C 
  O58      1.0000 0.40690  0.43760  0.55750  Biso   1.000  O 
  O59      1.0000 0.35940  0.36970  0.79650  Biso   1.000  O 
  C64      1.0000 0.50040  0.50670  0.80700  Biso   1.000  C 
  H7       1.0000 0.50385  0.51235  0.64935  Biso   1.000  H 
  C65      1.0000 0.54570  0.55210  0.92700  Biso   1.000  C 
  O60      1.0000 0.59060  0.61210  0.84410  Biso   1.000  O 
  H8       1.0000 0.49615  0.48765  0.35065  Biso   1.000  H 
  O61      1.0000 0.63597  0.74023  0.77583  Biso   1.000  O 
  C66      1.0000 0.64857  0.73773  0.60433  Biso   1.000  C 
  O62      1.0000 0.65637  0.69273  0.53683  Biso   1.000  O 
  O63      1.0000 0.70303  0.67697  0.87017  Biso   1.000  O 
  C67      1.0000 0.75583  0.68477  0.93767  Biso   1.000  C 
  O64      1.0000 0.77093  0.69737  0.10917  Biso   1.000  O 
  C68      1.0000 0.79263  0.67037  0.78767  Biso   1.000  C 
  C69      1.0000 0.78123  0.66027  0.59367  Biso   1.000  C 
  C70      1.0000 0.82663  0.66037  0.47367  Biso   1.000  C 
  H9       1.0000 0.82098  0.65817  0.31602  Biso   1.000  H 
  C71      1.0000 0.87403  0.66297  0.54567  Biso   1.000  C 
  C72      1.0000 0.91083  0.64857  0.39567  Biso   1.000  C 
  O65      1.0000 0.89573  0.63597  0.22417  Biso   1.000  O 
  O66      1.0000 0.96363  0.65637  0.46317  Biso   1.000  O 
  C73      1.0000 0.88543  0.67307  0.73967  Biso   1.000  C 
  O67      1.0000 0.94543  0.68817  0.82257  Biso   1.000  O 
  C74      1.0000 0.84003  0.67297  0.85967  Biso   1.000  C 
  H10      1.0000 0.84568  0.67516  0.01732  Biso   1.000  H 
  C75      1.0000 0.67297  0.83293  0.14033  Biso   1.000  C 
  C76      1.0000 0.67037  0.87773  0.21233  Biso   1.000  C 
  C77      1.0000 0.68477  0.92893  0.06233  Biso   1.000  C 
  O68      1.0000 0.67697  0.97393  0.12983  Biso   1.000  O 
  O69      1.0000 0.69737  0.92643  0.89083  Biso   1.000  O 
  H11      1.0000 0.67516  0.82948  0.98268  Biso   1.000  H 
  O70      1.0000 0.63030  0.98970  0.79650  Biso   1.000  O 
  H12      1.0000 0.51235  0.00850  0.35065  Biso   1.000  H 
  O71      1.0000 0.67633  0.12927  0.89467  Biso   1.000  O 
  C78      1.0000 0.71543  0.17917  0.88067  Biso   1.000  C 
  O72      1.0000 0.75453  0.22897  0.86667  Biso   1.000  O 
  H13      1.0000 0.83719  0.17902  0.31602  Biso   1.000  H 
  O73      1.0000 0.12927  0.45293  0.10533  Biso   1.000  O 
  C79      1.0000 0.17917  0.46373  0.11933  Biso   1.000  C 
  O74      1.0000 0.22897  0.47443  0.13333  Biso   1.000  O 
  C80      1.0000 0.15997  0.32703  0.14033  Biso   1.000  C 
  C81      1.0000 0.20737  0.32963  0.21233  Biso   1.000  C 
  C82      1.0000 0.24417  0.31523  0.06233  Biso   1.000  C 
  O75      1.0000 0.29697  0.32303  0.12983  Biso   1.000  O 
  O76      1.0000 0.22907  0.30263  0.89083  Biso   1.000  O 
  H14      1.0000 0.15432  0.32484  0.98268  Biso   1.000  H 
  H15      1.0000 0.17902  0.34183  0.68398  Biso   1.000  H 
  O77      1.0000 0.34363  0.30727  0.46317  Biso   1.000  O 
  C83      1.0000 0.35143  0.26227  0.39567  Biso   1.000  C 
  O78      1.0000 0.36403  0.25977  0.22417  Biso   1.000  O 
  O79      1.0000 0.45293  0.32367  0.89467  Biso   1.000  O 
  C84      1.0000 0.46373  0.28457  0.88067  Biso   1.000  C 
  O80      1.0000 0.47443  0.24547  0.86667  Biso   1.000  O 
  C85      1.0000 0.32703  0.16707  0.85967  Biso   1.000  C 
  H16      1.0000 0.32484  0.17052  0.01732  Biso   1.000  H 
  H17      1.0000 0.34183  0.16281  0.31602  Biso   1.000  H 
  O81      1.0000 0.32367  0.87073  0.10533  Biso   1.000  O 
  C86      1.0000 0.28457  0.82083  0.11933  Biso   1.000  C 
  O82      1.0000 0.24547  0.77103  0.13333  Biso   1.000  O 
  O83      1.0000 0.25977  0.89573  0.77583  Biso   1.000  O 
  C87      1.0000 0.26227  0.91083  0.60433  Biso   1.000  C 
  O84      1.0000 0.30727  0.96363  0.53683  Biso   1.000  O 
  C88      1.0000 0.16707  0.84003  0.14033  Biso   1.000  C 
  H18      1.0000 0.17052  0.84568  0.98268  Biso   1.000  H 
  O85      1.0000 0.07357  0.77093  0.89083  Biso   1.000  O 
  O86      1.0000 0.01030  0.64060  0.79650  Biso   1.000  O 
  O87      1.0000 0.87073  0.54707  0.89467  Biso   1.000  O 
  C89      1.0000 0.82083  0.53627  0.88067  Biso   1.000  C 
  O88      1.0000 0.77103  0.52557  0.86667  Biso   1.000  O 
  O89      1.0000 0.11960  0.65700  0.22800  Biso   1.000  O 
  C90      1.0000 0.13040  0.61790  0.21400  Biso   1.000  C 
  O90      1.0000 0.14110  0.57880  0.20000  Biso   1.000  O 
