data_image0
_cell_length_a       25.8995
_cell_length_b       25.8995
_cell_length_c       6.87386
_cell_angle_alpha    90
_cell_angle_beta     90
_cell_angle_gamma    120

_symmetry_space_group_name_H-M    "P 1"
_symmetry_int_tables_number       1

loop_
  _symmetry_equiv_pos_as_xyz
  'x, y, z'

loop_
  _atom_site_label
  _atom_site_occupancy
  _atom_site_fract_x
  _atom_site_fract_y
  _atom_site_fract_z
  _atom_site_thermal_displace_type
  _atom_site_B_iso_or_equiv
  _atom_site_type_symbol
  C1       1.0000 0.00900  0.49990  0.80400  Biso   1.000  C 
  H1       1.0000 0.01325  0.49741  0.64714  Biso   1.000  H 
  C2       1.0000 0.00900  0.45550  0.92300  Biso   1.000  C 
  O1       1.0000 0.02220  0.41260  0.84470  Biso   1.000  O 
  Zn1      1.0000 0.04924  0.36176  0.97463  Biso   1.000  Zn
  O2       1.0000 0.99180  0.36160  0.20250  Biso   1.000  O 
  Zn2      1.0000 0.97919  0.28410  0.30797  Biso   1.000  Zn
  O3       1.0000 0.98193  0.19867  0.44867  Biso   1.000  O 
  C3       1.0000 0.95113  0.15107  0.47857  Biso   1.000  C 
  O4       1.0000 0.92033  0.10357  0.50867  Biso   1.000  O 
  O5       1.0000 0.03647  0.34153  0.53583  Biso   1.000  O 
  C4       1.0000 0.08977  0.35073  0.60233  Biso   1.000  C 
  O6       1.0000 0.10517  0.36403  0.77783  Biso   1.000  O 
  C5       1.0000 0.12627  0.33733  0.45633  Biso   1.000  C 
  C6       1.0000 0.11317  0.32433  0.25633  Biso   1.000  C 
  O7       1.0000 0.05707  0.31113  0.17803  Biso   1.000  O 
  C7       1.0000 0.15757  0.32433  0.13733  Biso   1.000  C 
  C8       1.0000 0.20707  0.32933  0.21033  Biso   1.000  C 
  C9       1.0000 0.22017  0.34233  0.41033  Biso   1.000  C 
  O8       1.0000 0.27627  0.35553  0.48863  Biso   1.000  O 
  Zn3      1.0000 0.28410  0.30490  0.69203  Biso   1.000  Zn
  O9       1.0000 0.19867  0.21673  0.55133  Biso   1.000  O 
  C10      1.0000 0.15107  0.19993  0.52143  Biso   1.000  C 
  O10      1.0000 0.10357  0.18323  0.49133  Biso   1.000  O 
  Zn4      1.0000 0.36176  0.31253  0.02537  Biso   1.000  Zn
  O11      1.0000 0.41260  0.39040  0.15530  Biso   1.000  O 
  Zn5      1.0000 0.35414  0.38257  0.35870  Biso   1.000  Zn
  O12      1.0000 0.35140  0.46800  0.21800  Biso   1.000  O 
  C11      1.0000 0.38220  0.51560  0.18810  Biso   1.000  C 
  O13      1.0000 0.41300  0.56310  0.15800  Biso   1.000  O 
  O14      1.0000 0.40780  0.43850  0.55550  Biso   1.000  O 
  C12      1.0000 0.40570  0.42310  0.73100  Biso   1.000  C 
  O15      1.0000 0.36160  0.36980  0.79750  Biso   1.000  O 
  C13      1.0000 0.45560  0.45960  0.87700  Biso   1.000  C 
  C14      1.0000 0.45550  0.44650  0.07700  Biso   1.000  C 
  C15      1.0000 0.49990  0.49090  0.19600  Biso   1.000  C 
  C16      1.0000 0.54440  0.54040  0.12300  Biso   1.000  C 
  C17      1.0000 0.59430  0.57690  0.26900  Biso   1.000  C 
  O16      1.0000 0.63840  0.63020  0.20250  Biso   1.000  O 
  Zn6      1.0000 0.71590  0.69510  0.30797  Biso   1.000  Zn
  O17      1.0000 0.80133  0.78327  0.44867  Biso   1.000  O 
  C18      1.0000 0.84893  0.80007  0.47857  Biso   1.000  C 
  O18      1.0000 0.89643  0.81677  0.50867  Biso   1.000  O 
  O19      1.0000 0.68887  0.74593  0.17803  Biso   1.000  O 
  C19      1.0000 0.67567  0.78883  0.25633  Biso   1.000  C 
  C20      1.0000 0.67567  0.83323  0.13733  Biso   1.000  C 
  C21      1.0000 0.67067  0.87773  0.21033  Biso   1.000  C 
  C22      1.0000 0.65767  0.87783  0.41033  Biso   1.000  C 
  O20      1.0000 0.64447  0.92073  0.48863  Biso   1.000  O 
  Zn7      1.0000 0.61743  0.97157  0.35870  Biso   1.000  Zn
  O21      1.0000 0.53200  0.88340  0.21800  Biso   1.000  O 
  C23      1.0000 0.48440  0.86660  0.18810  Biso   1.000  C 
  O22      1.0000 0.43690  0.84990  0.15800  Biso   1.000  O 
  Zn8      1.0000 0.69510  0.97919  0.69203  Biso   1.000  Zn
  O23      1.0000 0.78327  0.98193  0.55133  Biso   1.000  O 
  C24      1.0000 0.80007  0.95113  0.52143  Biso   1.000  C 
  O24      1.0000 0.81677  0.92033  0.49133  Biso   1.000  O 
  O25      1.0000 0.69493  0.03647  0.46417  Biso   1.000  O 
  C25      1.0000 0.73903  0.08977  0.39767  Biso   1.000  C 
  O26      1.0000 0.74113  0.10517  0.22217  Biso   1.000  O 
  Zn9      1.0000 0.68747  0.04924  0.02537  Biso   1.000  Zn
  O27      1.0000 0.60960  0.02220  0.15530  Biso   1.000  O 
  C26      1.0000 0.55350  0.00900  0.07700  Biso   1.000  C 
  C27      1.0000 0.50910  0.00900  0.19600  Biso   1.000  C 
  C28      1.0000 0.45960  0.00400  0.12300  Biso   1.000  C 
  C29      1.0000 0.42310  0.01740  0.26900  Biso   1.000  C 
  O28      1.0000 0.36980  0.00820  0.20250  Biso   1.000  O 
  Zn10     1.0000 0.30490  0.02081  0.30797  Biso   1.000  Zn
  O29      1.0000 0.21673  0.01807  0.44867  Biso   1.000  O 
  C30      1.0000 0.19993  0.04887  0.47857  Biso   1.000  C 
  O30      1.0000 0.18323  0.07967  0.50867  Biso   1.000  O 
  O31      1.0000 0.25407  0.94293  0.17803  Biso   1.000  O 
  C31      1.0000 0.21117  0.88683  0.25633  Biso   1.000  C 
  C32      1.0000 0.16677  0.84243  0.13733  Biso   1.000  C 
  C33      1.0000 0.12227  0.79293  0.21033  Biso   1.000  C 
  C34      1.0000 0.07237  0.75643  0.06433  Biso   1.000  C 
  O32      1.0000 0.02827  0.70313  0.13083  Biso   1.000  O 
  Zn11     1.0000 0.02843  0.64586  0.35870  Biso   1.000  Zn
  Zn12     1.0000 0.02081  0.71590  0.69203  Biso   1.000  Zn
  O33      1.0000 0.01807  0.80133  0.55133  Biso   1.000  O 
  C35      1.0000 0.04887  0.84893  0.52143  Biso   1.000  C 
  O34      1.0000 0.07967  0.89643  0.49133  Biso   1.000  O 
  Zn13     1.0000 0.95076  0.63824  0.02537  Biso   1.000  Zn
  O35      1.0000 0.97780  0.58740  0.15530  Biso   1.000  O 
  C36      1.0000 0.99100  0.54450  0.07700  Biso   1.000  C 
  C37      1.0000 0.99100  0.50010  0.19600  Biso   1.000  C 
  H2       1.0000 0.98675  0.50259  0.35286  Biso   1.000  H 
  C38      1.0000 0.99600  0.45560  0.12300  Biso   1.000  C 
  C39      1.0000 0.98260  0.40570  0.26900  Biso   1.000  C 
  O36      1.0000 0.96930  0.40780  0.44450  Biso   1.000  O 
  Zn14     1.0000 0.97157  0.35414  0.64130  Biso   1.000  Zn
  O37      1.0000 0.88340  0.35140  0.78200  Biso   1.000  O 
  C40      1.0000 0.86660  0.38220  0.81190  Biso   1.000  C 
  O38      1.0000 0.84990  0.41300  0.84200  Biso   1.000  O 
  O39      1.0000 0.92073  0.27627  0.51137  Biso   1.000  O 
  C41      1.0000 0.87783  0.22017  0.58967  Biso   1.000  C 
  C42      1.0000 0.83343  0.17577  0.47067  Biso   1.000  C 
  C43      1.0000 0.78893  0.12627  0.54367  Biso   1.000  C 
  C44      1.0000 0.78883  0.11317  0.74367  Biso   1.000  C 
  O40      1.0000 0.74593  0.05707  0.82197  Biso   1.000  O 
  C45      1.0000 0.83323  0.15757  0.86267  Biso   1.000  C 
  C46      1.0000 0.87773  0.20707  0.78967  Biso   1.000  C 
  C47      1.0000 0.92763  0.24357  0.93567  Biso   1.000  C 
  O41      1.0000 0.97173  0.29687  0.86917  Biso   1.000  O 
  O42      1.0000 0.92553  0.22817  0.11117  Biso   1.000  O 
  H3       1.0000 0.83075  0.15083  0.01953  Biso   1.000  H 
  H4       1.0000 0.83592  0.18251  0.31381  Biso   1.000  H 
  C48      1.0000 0.00400  0.54440  0.87700  Biso   1.000  C 
  C49      1.0000 0.01740  0.59430  0.73100  Biso   1.000  C 
  O43      1.0000 0.03070  0.59220  0.55550  Biso   1.000  O 
  O44      1.0000 0.00820  0.63840  0.79750  Biso   1.000  O 
  O45      1.0000 0.94293  0.68887  0.82197  Biso   1.000  O 
  C50      1.0000 0.88683  0.67567  0.74367  Biso   1.000  C 
  C51      1.0000 0.84243  0.67567  0.86267  Biso   1.000  C 
  C52      1.0000 0.79293  0.67067  0.78967  Biso   1.000  C 
  C53      1.0000 0.75643  0.68407  0.93567  Biso   1.000  C 
  O46      1.0000 0.70313  0.67487  0.86917  Biso   1.000  O 
  Zn15     1.0000 0.64586  0.61743  0.64130  Biso   1.000  Zn
  O47      1.0000 0.64860  0.53200  0.78200  Biso   1.000  O 
  C54      1.0000 0.61780  0.48440  0.81190  Biso   1.000  C 
  O48      1.0000 0.58700  0.43690  0.84200  Biso   1.000  O 
  Zn16     1.0000 0.63824  0.68747  0.97463  Biso   1.000  Zn
  O49      1.0000 0.55007  0.68473  0.11533  Biso   1.000  O 
  C55      1.0000 0.53327  0.71553  0.14523  Biso   1.000  C 
  O50      1.0000 0.51657  0.74633  0.17533  Biso   1.000  O 
  O51      1.0000 0.58740  0.60960  0.84470  Biso   1.000  O 
  C56      1.0000 0.54450  0.55350  0.92300  Biso   1.000  C 
  C57      1.0000 0.50010  0.50910  0.80400  Biso   1.000  C 
  H5       1.0000 0.50259  0.51584  0.64714  Biso   1.000  H 
  O52      1.0000 0.63597  0.74113  0.77783  Biso   1.000  O 
  C58      1.0000 0.64927  0.73903  0.60233  Biso   1.000  C 
  O53      1.0000 0.65847  0.69493  0.53583  Biso   1.000  O 
  C59      1.0000 0.66267  0.78893  0.45633  Biso   1.000  C 
  C60      1.0000 0.65767  0.83343  0.52933  Biso   1.000  C 
  H6       1.0000 0.65341  0.83592  0.68619  Biso   1.000  H 
  O54      1.0000 0.72373  0.64447  0.51137  Biso   1.000  O 
  C61      1.0000 0.77983  0.65767  0.58967  Biso   1.000  C 
  C62      1.0000 0.82423  0.65767  0.47067  Biso   1.000  C 
  H7       1.0000 0.81749  0.65341  0.31381  Biso   1.000  H 
  C63      1.0000 0.87373  0.66267  0.54367  Biso   1.000  C 
  C64      1.0000 0.91023  0.64927  0.39767  Biso   1.000  C 
  O55      1.0000 0.89483  0.63597  0.22217  Biso   1.000  O 
  O56      1.0000 0.96353  0.65847  0.46417  Biso   1.000  O 
  O57      1.0000 0.59220  0.56150  0.44450  Biso   1.000  O 
  O58      1.0000 0.77183  0.69737  0.11117  Biso   1.000  O 
  H8       1.0000 0.84917  0.67992  0.01953  Biso   1.000  H 
  O59      1.0000 0.86533  0.55007  0.88467  Biso   1.000  O 
  C65      1.0000 0.81773  0.53327  0.85477  Biso   1.000  C 
  O60      1.0000 0.77023  0.51657  0.82467  Biso   1.000  O 
  O61      1.0000 0.07927  0.72373  0.48863  Biso   1.000  O 
  C66      1.0000 0.12217  0.77983  0.41033  Biso   1.000  C 
  C67      1.0000 0.16657  0.82423  0.52933  Biso   1.000  C 
  H9       1.0000 0.16408  0.81749  0.68619  Biso   1.000  H 
  C68      1.0000 0.21107  0.87373  0.45633  Biso   1.000  C 
  C69      1.0000 0.26097  0.91023  0.60233  Biso   1.000  C 
  O62      1.0000 0.30507  0.96353  0.53583  Biso   1.000  O 
  Zn17     1.0000 0.38257  0.02843  0.64130  Biso   1.000  Zn
  O63      1.0000 0.46800  0.11660  0.78200  Biso   1.000  O 
  C70      1.0000 0.51560  0.13340  0.81190  Biso   1.000  C 
  O64      1.0000 0.56310  0.15010  0.84200  Biso   1.000  O 
  O65      1.0000 0.39040  0.97780  0.84470  Biso   1.000  O 
  Zn18     1.0000 0.31253  0.95076  0.97463  Biso   1.000  Zn
  O66      1.0000 0.32513  0.02827  0.86917  Biso   1.000  O 
  C71      1.0000 0.31593  0.07237  0.93567  Biso   1.000  C 
  O67      1.0000 0.30263  0.07447  0.11117  Biso   1.000  O 
  C72      1.0000 0.32933  0.12227  0.78967  Biso   1.000  C 
  C73      1.0000 0.34233  0.12217  0.58967  Biso   1.000  C 
  O68      1.0000 0.35553  0.07927  0.51137  Biso   1.000  O 
  C74      1.0000 0.34233  0.16657  0.47067  Biso   1.000  C 
  C75      1.0000 0.33733  0.21107  0.54367  Biso   1.000  C 
  C76      1.0000 0.32433  0.21117  0.74367  Biso   1.000  C 
  O69      1.0000 0.31113  0.25407  0.82197  Biso   1.000  O 
  C77      1.0000 0.32433  0.16677  0.86267  Biso   1.000  C 
  H10      1.0000 0.32008  0.16925  0.01953  Biso   1.000  H 
  C78      1.0000 0.35073  0.26097  0.39767  Biso   1.000  C 
  O70      1.0000 0.36403  0.25887  0.22217  Biso   1.000  O 
  O71      1.0000 0.34153  0.30507  0.46417  Biso   1.000  O 
  H11      1.0000 0.34659  0.16408  0.31381  Biso   1.000  H 
  O72      1.0000 0.31527  0.86533  0.11533  Biso   1.000  O 
  C79      1.0000 0.28447  0.81773  0.14523  Biso   1.000  C 
  O73      1.0000 0.25367  0.77023  0.17533  Biso   1.000  O 
  O74      1.0000 0.25887  0.89483  0.77783  Biso   1.000  O 
  C80      1.0000 0.44650  0.99100  0.92300  Biso   1.000  C 
  C81      1.0000 0.49090  0.99100  0.80400  Biso   1.000  C 
  H12      1.0000 0.48416  0.98675  0.64714  Biso   1.000  H 
  C82      1.0000 0.54040  0.99600  0.87700  Biso   1.000  C 
  C83      1.0000 0.57690  0.98260  0.73100  Biso   1.000  C 
  O75      1.0000 0.56150  0.96930  0.55550  Biso   1.000  O 
  O76      1.0000 0.63020  0.99180  0.79750  Biso   1.000  O 
  O77      1.0000 0.43850  0.03070  0.44450  Biso   1.000  O 
  O78      1.0000 0.07447  0.77183  0.88883  Biso   1.000  O 
  O79      1.0000 0.11660  0.64860  0.21800  Biso   1.000  O 
  C84      1.0000 0.13340  0.61780  0.18810  Biso   1.000  C 
  O80      1.0000 0.15010  0.58700  0.15800  Biso   1.000  O 
  H13      1.0000 0.16925  0.84917  0.98047  Biso   1.000  H 
  H14      1.0000 0.51584  0.01325  0.35286  Biso   1.000  H 
  O81      1.0000 0.67487  0.97173  0.13083  Biso   1.000  O 
  C85      1.0000 0.68407  0.92763  0.06433  Biso   1.000  C 
  O82      1.0000 0.69737  0.92553  0.88883  Biso   1.000  O 
  O83      1.0000 0.68473  0.13467  0.88467  Biso   1.000  O 
  C86      1.0000 0.71553  0.18227  0.85477  Biso   1.000  C 
  O84      1.0000 0.74633  0.22977  0.82467  Biso   1.000  O 
  H15      1.0000 0.67992  0.83075  0.98047  Biso   1.000  H 
  H16      1.0000 0.49741  0.48416  0.35286  Biso   1.000  H 
  O85      1.0000 0.29687  0.32513  0.13083  Biso   1.000  O 
  C87      1.0000 0.24357  0.31593  0.06433  Biso   1.000  C 
  O86      1.0000 0.22817  0.30263  0.88883  Biso   1.000  O 
  O87      1.0000 0.44993  0.31527  0.88467  Biso   1.000  O 
  C88      1.0000 0.46673  0.28447  0.85477  Biso   1.000  C 
  O88      1.0000 0.48343  0.25367  0.82467  Biso   1.000  O 
  C89      1.0000 0.17577  0.34233  0.52933  Biso   1.000  C 
  H17      1.0000 0.18251  0.34659  0.68619  Biso   1.000  H 
  H18      1.0000 0.15083  0.32008  0.98047  Biso   1.000  H 
  O89      1.0000 0.13467  0.44993  0.11533  Biso   1.000  O 
  C90      1.0000 0.18227  0.46673  0.14523  Biso   1.000  C 
  O90      1.0000 0.22977  0.48343  0.17533  Biso   1.000  O 
