data_image0
_cell_length_a       25.9298
_cell_length_b       25.9298
_cell_length_c       6.8939
_cell_angle_alpha    90
_cell_angle_beta     90
_cell_angle_gamma    120

_symmetry_space_group_name_H-M    "P 1"
_symmetry_int_tables_number       1

loop_
  _symmetry_equiv_pos_as_xyz
  'x, y, z'

loop_
  _atom_site_label
  _atom_site_occupancy
  _atom_site_fract_x
  _atom_site_fract_y
  _atom_site_fract_z
  _atom_site_thermal_displace_type
  _atom_site_B_iso_or_equiv
  _atom_site_type_symbol
  Mg1      1.0000 0.28669  0.30606  0.69600  Biso   1.000  Mg
  O1       1.0000 0.23200  0.30300  0.90520  Biso   1.000  O 
  C1       1.0000 0.24630  0.31780  0.08020  Biso   1.000  C 
  O2       1.0000 0.29583  0.32570  0.14400  Biso   1.000  O 
  Mg2      1.0000 0.36061  0.31396  0.02933  Biso   1.000  Mg
  O3       1.0000 0.36367  0.26233  0.23853  Biso   1.000  O 
  C2       1.0000 0.34887  0.26183  0.41353  Biso   1.000  C 
  O4       1.0000 0.34097  0.30346  0.47733  Biso   1.000  O 
  Mg3      1.0000 0.35270  0.37998  0.36267  Biso   1.000  Mg
  O5       1.0000 0.33672  0.45610  0.26048  Biso   1.000  O 
  C3       1.0000 0.37965  0.50512  0.25920  Biso   1.000  C 
  O6       1.0000 0.42259  0.55413  0.25791  Biso   1.000  O 
  O7       1.0000 0.41199  0.39103  0.13567  Biso   1.000  O 
  C4       1.0000 0.45581  0.44526  0.06847  Biso   1.000  C 
  C5       1.0000 0.50146  0.48347  0.18933  Biso   1.000  C 
  H1       1.0000 0.50275  0.47054  0.33876  Biso   1.000  H 
  C6       1.0000 0.54560  0.53810  0.12164  Biso   1.000  C 
  C7       1.0000 0.59517  0.57963  0.25313  Biso   1.000  C 
  O8       1.0000 0.59567  0.56533  0.42813  Biso   1.000  O 
  Mg4      1.0000 0.64730  0.62002  0.63733  Biso   1.000  Mg
  O9       1.0000 0.72436  0.64570  0.53100  Biso   1.000  O 
  C8       1.0000 0.77859  0.65611  0.59820  Biso   1.000  C 
  C9       1.0000 0.81680  0.64867  0.47734  Biso   1.000  C 
  H2       1.0000 0.80387  0.63446  0.32791  Biso   1.000  H 
  C10      1.0000 0.87144  0.65917  0.54502  Biso   1.000  C 
  C11      1.0000 0.91297  0.65113  0.41353  Biso   1.000  C 
  O10      1.0000 0.89867  0.63633  0.23853  Biso   1.000  O 
  Mg5      1.0000 0.95336  0.63939  0.02933  Biso   1.000  Mg
  O11      1.0000 0.97903  0.58801  0.13567  Biso   1.000  O 
  C12      1.0000 0.98944  0.54419  0.06847  Biso   1.000  C 
  C13      1.0000 0.98200  0.49854  0.18933  Biso   1.000  C 
  H3       1.0000 0.96779  0.49725  0.33876  Biso   1.000  H 
  C14      1.0000 0.99251  0.45440  0.12164  Biso   1.000  C 
  C15      1.0000 0.98447  0.40483  0.25313  Biso   1.000  C 
  O12      1.0000 0.96967  0.40433  0.42813  Biso   1.000  O 
  Mg6      1.0000 0.97273  0.35270  0.63733  Biso   1.000  Mg
  O13      1.0000 0.88062  0.33672  0.73952  Biso   1.000  O 
  C16      1.0000 0.87454  0.37965  0.74080  Biso   1.000  C 
  O14      1.0000 0.86845  0.42259  0.74209  Biso   1.000  O 
  O15      1.0000 0.92134  0.27564  0.53100  Biso   1.000  O 
  C17      1.0000 0.87752  0.22141  0.59820  Biso   1.000  C 
  C18      1.0000 0.83187  0.18320  0.47734  Biso   1.000  C 
  H4       1.0000 0.83059  0.19613  0.32791  Biso   1.000  H 
  C19      1.0000 0.78774  0.12856  0.54502  Biso   1.000  C 
  C20      1.0000 0.73817  0.08703  0.41353  Biso   1.000  C 
  O16      1.0000 0.73767  0.10133  0.23853  Biso   1.000  O 
  Mg7      1.0000 0.68604  0.04664  0.02933  Biso   1.000  Mg
  O17      1.0000 0.60897  0.02097  0.13567  Biso   1.000  O 
  C21      1.0000 0.55474  0.01056  0.06847  Biso   1.000  C 
  C22      1.0000 0.51653  0.01800  0.18933  Biso   1.000  C 
  H5       1.0000 0.52946  0.03221  0.33876  Biso   1.000  H 
  C23      1.0000 0.46190  0.00749  0.12164  Biso   1.000  C 
  C24      1.0000 0.42037  0.01553  0.25313  Biso   1.000  C 
  O18      1.0000 0.43467  0.03033  0.42813  Biso   1.000  O 
  Mg8      1.0000 0.37998  0.02727  0.63733  Biso   1.000  Mg
  O19      1.0000 0.32570  0.02987  0.85600  Biso   1.000  O 
  C25      1.0000 0.31780  0.07150  0.91980  Biso   1.000  C 
  O20      1.0000 0.30300  0.07100  0.09480  Biso   1.000  O 
  Mg9      1.0000 0.30606  0.01937  0.30400  Biso   1.000  Mg
  O21      1.0000 0.21395  0.00338  0.40619  Biso   1.000  O 
  C26      1.0000 0.20787  0.04632  0.40747  Biso   1.000  C 
  O22      1.0000 0.20179  0.08926  0.40875  Biso   1.000  O 
  O23      1.0000 0.35430  0.07866  0.53100  Biso   1.000  O 
  C27      1.0000 0.34389  0.12248  0.59820  Biso   1.000  C 
  C28      1.0000 0.35133  0.16813  0.47734  Biso   1.000  C 
  H6       1.0000 0.36554  0.16941  0.32791  Biso   1.000  H 
  C29      1.0000 0.34083  0.21226  0.54502  Biso   1.000  C 
  C30      1.0000 0.32278  0.21085  0.73513  Biso   1.000  C 
  C31      1.0000 0.31534  0.16520  0.85599  Biso   1.000  C 
  C32      1.0000 0.32584  0.12107  0.78831  Biso   1.000  C 
  H7       1.0000 0.30112  0.16392  0.00543  Biso   1.000  H 
  O24      1.0000 0.31237  0.25467  0.80233  Biso   1.000  O 
  O25      1.0000 0.37084  0.00763  0.18933  Biso   1.000  O 
  Mg10     1.0000 0.31396  0.95336  0.97067  Biso   1.000  Mg
  O26      1.0000 0.26233  0.89867  0.76147  Biso   1.000  O 
  C33      1.0000 0.26183  0.91297  0.58647  Biso   1.000  C 
  O27      1.0000 0.30346  0.96250  0.52267  Biso   1.000  O 
  C34      1.0000 0.21226  0.87144  0.45498  Biso   1.000  C 
  C35      1.0000 0.16813  0.81680  0.52266  Biso   1.000  C 
  H8       1.0000 0.16941  0.80387  0.67209  Biso   1.000  H 
  C36      1.0000 0.12248  0.77859  0.40180  Biso   1.000  C 
  C37      1.0000 0.12107  0.79523  0.21169  Biso   1.000  C 
  C38      1.0000 0.07150  0.75370  0.08020  Biso   1.000  C 
  O28      1.0000 0.07100  0.76800  0.90520  Biso   1.000  O 
  Mg11     1.0000 0.01937  0.71331  0.69600  Biso   1.000  Mg
  O29      1.0000 0.00338  0.78943  0.59381  Biso   1.000  O 
  C39      1.0000 0.04632  0.83845  0.59253  Biso   1.000  C 
  O30      1.0000 0.08926  0.88747  0.59125  Biso   1.000  O 
  O31      1.0000 0.00763  0.63680  0.81067  Biso   1.000  O 
  C40      1.0000 0.01553  0.59517  0.74687  Biso   1.000  C 
  O32      1.0000 0.03033  0.59567  0.57187  Biso   1.000  O 
  Mg12     1.0000 0.02727  0.64730  0.36267  Biso   1.000  Mg
  O33      1.0000 0.02987  0.70417  0.14400  Biso   1.000  O 
  O34      1.0000 0.07866  0.72436  0.46900  Biso   1.000  O 
  O35      1.0000 0.11938  0.66328  0.26048  Biso   1.000  O 
  C41      1.0000 0.12546  0.62035  0.25920  Biso   1.000  C 
  O36      1.0000 0.13155  0.57741  0.25791  Biso   1.000  O 
  O37      1.0000 0.96250  0.65903  0.47733  Biso   1.000  O 
  C42      1.0000 0.00749  0.54560  0.87836  Biso   1.000  C 
  C43      1.0000 0.01800  0.50146  0.81067  Biso   1.000  C 
  H9       1.0000 0.03221  0.50275  0.66124  Biso   1.000  H 
  C44      1.0000 0.01056  0.45581  0.93153  Biso   1.000  C 
  O38      1.0000 0.02097  0.41199  0.86433  Biso   1.000  O 
  Mg13     1.0000 0.04664  0.36061  0.97067  Biso   1.000  Mg
  O39      1.0000 0.10133  0.36367  0.76147  Biso   1.000  O 
  C45      1.0000 0.08703  0.34887  0.58647  Biso   1.000  C 
  O40      1.0000 0.03750  0.34097  0.52267  Biso   1.000  O 
  Mg14     1.0000 0.98063  0.28669  0.30400  Biso   1.000  Mg
  O41      1.0000 0.99237  0.36320  0.18933  Biso   1.000  O 
  O42      1.0000 0.92900  0.23200  0.09480  Biso   1.000  O 
  C46      1.0000 0.92850  0.24630  0.91980  Biso   1.000  C 
  O43      1.0000 0.97013  0.29583  0.85600  Biso   1.000  O 
  C47      1.0000 0.87893  0.20477  0.78831  Biso   1.000  C 
  C48      1.0000 0.83480  0.15013  0.85599  Biso   1.000  C 
  C49      1.0000 0.78915  0.11192  0.73513  Biso   1.000  C 
  O44      1.0000 0.74533  0.05769  0.80233  Biso   1.000  O 
  Mg15     1.0000 0.69394  0.98063  0.69600  Biso   1.000  Mg
  O45      1.0000 0.64570  0.92134  0.46900  Biso   1.000  O 
  C50      1.0000 0.65611  0.87752  0.40180  Biso   1.000  C 
  C51      1.0000 0.64867  0.83187  0.52266  Biso   1.000  C 
  H10      1.0000 0.63446  0.83059  0.67209  Biso   1.000  H 
  C52      1.0000 0.65917  0.78774  0.45498  Biso   1.000  C 
  C53      1.0000 0.65113  0.73817  0.58647  Biso   1.000  C 
  O46      1.0000 0.63633  0.73767  0.76147  Biso   1.000  O 
  Mg16     1.0000 0.63939  0.68604  0.97067  Biso   1.000  Mg
  O47      1.0000 0.58801  0.60897  0.86433  Biso   1.000  O 
  C54      1.0000 0.54419  0.55474  0.93153  Biso   1.000  C 
  C55      1.0000 0.49854  0.51653  0.81067  Biso   1.000  C 
  H11      1.0000 0.49725  0.52946  0.66124  Biso   1.000  H 
  C56      1.0000 0.45440  0.46190  0.87836  Biso   1.000  C 
  C57      1.0000 0.40483  0.42037  0.74687  Biso   1.000  C 
  O48      1.0000 0.40433  0.43467  0.57187  Biso   1.000  O 
  O49      1.0000 0.36320  0.37084  0.81067  Biso   1.000  O 
  O50      1.0000 0.70417  0.67430  0.85600  Biso   1.000  O 
  C58      1.0000 0.75370  0.68220  0.91980  Biso   1.000  C 
  O51      1.0000 0.76800  0.69700  0.09480  Biso   1.000  O 
  Mg17     1.0000 0.71331  0.69394  0.30400  Biso   1.000  Mg
  O52      1.0000 0.63680  0.62916  0.18933  Biso   1.000  O 
  O53      1.0000 0.65903  0.69654  0.52267  Biso   1.000  O 
  O54      1.0000 0.68763  0.74533  0.19767  Biso   1.000  O 
  C59      1.0000 0.67722  0.78915  0.26487  Biso   1.000  C 
  C60      1.0000 0.68466  0.83480  0.14401  Biso   1.000  C 
  H12      1.0000 0.69888  0.83608  0.99457  Biso   1.000  H 
  C61      1.0000 0.67416  0.87893  0.21169  Biso   1.000  C 
  C62      1.0000 0.68220  0.92850  0.08020  Biso   1.000  C 
  O55      1.0000 0.69700  0.92900  0.90520  Biso   1.000  O 
  O56      1.0000 0.67430  0.97013  0.14400  Biso   1.000  O 
  Mg18     1.0000 0.62002  0.97273  0.36267  Biso   1.000  Mg
  O57      1.0000 0.54390  0.88062  0.26048  Biso   1.000  O 
  C63      1.0000 0.49488  0.87454  0.25920  Biso   1.000  C 
  O58      1.0000 0.44587  0.86845  0.25791  Biso   1.000  O 
  O59      1.0000 0.56533  0.96967  0.57187  Biso   1.000  O 
  C64      1.0000 0.57963  0.98447  0.74687  Biso   1.000  C 
  O60      1.0000 0.62916  0.99237  0.81067  Biso   1.000  O 
  C65      1.0000 0.53810  0.99251  0.87836  Biso   1.000  C 
  C66      1.0000 0.48347  0.98200  0.81067  Biso   1.000  C 
  H13      1.0000 0.47054  0.96779  0.66124  Biso   1.000  H 
  C67      1.0000 0.44526  0.98944  0.93153  Biso   1.000  C 
  O61      1.0000 0.39103  0.97903  0.86433  Biso   1.000  O 
  O62      1.0000 0.69654  0.03750  0.47733  Biso   1.000  O 
  O63      1.0000 0.78943  0.78605  0.40619  Biso   1.000  O 
  C68      1.0000 0.83845  0.79213  0.40747  Biso   1.000  C 
  O64      1.0000 0.88747  0.79821  0.40875  Biso   1.000  O 
  C69      1.0000 0.79523  0.67416  0.78831  Biso   1.000  C 
  C70      1.0000 0.84987  0.68466  0.85599  Biso   1.000  C 
  C71      1.0000 0.88808  0.67722  0.73513  Biso   1.000  C 
  O65      1.0000 0.94231  0.68763  0.80233  Biso   1.000  O 
  H14      1.0000 0.86280  0.69888  0.00543  Biso   1.000  H 
  O66      1.0000 0.54729  0.67005  0.07285  Biso   1.000  O 
  C72      1.0000 0.54120  0.71299  0.07414  Biso   1.000  C 
  O67      1.0000 0.53512  0.75592  0.07542  Biso   1.000  O 
  O68      1.0000 0.78605  0.99662  0.59381  Biso   1.000  O 
  C73      1.0000 0.79213  0.95368  0.59253  Biso   1.000  C 
  O69      1.0000 0.79821  0.91075  0.59125  Biso   1.000  O 
  H15      1.0000 0.83608  0.13720  0.00543  Biso   1.000  H 
  O70      1.0000 0.99662  0.21057  0.40619  Biso   1.000  O 
  C74      1.0000 0.95368  0.16155  0.40747  Biso   1.000  C 
  O71      1.0000 0.91075  0.11253  0.40875  Biso   1.000  O 
  O72      1.0000 0.05769  0.31237  0.19767  Biso   1.000  O 
  C75      1.0000 0.11192  0.32278  0.26487  Biso   1.000  C 
  C76      1.0000 0.15013  0.31534  0.14401  Biso   1.000  C 
  H16      1.0000 0.13720  0.30112  0.99457  Biso   1.000  H 
  C77      1.0000 0.20477  0.32584  0.21169  Biso   1.000  C 
  C78      1.0000 0.22141  0.34389  0.40180  Biso   1.000  C 
  C79      1.0000 0.18320  0.35133  0.52266  Biso   1.000  C 
  H17      1.0000 0.19613  0.36554  0.67209  Biso   1.000  H 
  C80      1.0000 0.12856  0.34083  0.45498  Biso   1.000  C 
  O73      1.0000 0.27564  0.35430  0.46900  Biso   1.000  O 
  O74      1.0000 0.12277  0.45271  0.07285  Biso   1.000  O 
  C81      1.0000 0.17178  0.45880  0.07414  Biso   1.000  C 
  O75      1.0000 0.22080  0.46488  0.07542  Biso   1.000  O 
  C82      1.0000 0.16520  0.84987  0.14401  Biso   1.000  C 
  H18      1.0000 0.16392  0.86280  0.99457  Biso   1.000  H 
  C83      1.0000 0.21085  0.88808  0.26487  Biso   1.000  C 
  O76      1.0000 0.25467  0.94231  0.19767  Biso   1.000  O 
  O77      1.0000 0.32995  0.87723  0.07285  Biso   1.000  O 
  C84      1.0000 0.28701  0.82822  0.07414  Biso   1.000  C 
  O78      1.0000 0.24408  0.77920  0.07542  Biso   1.000  O 
  O79      1.0000 0.45610  0.11938  0.73952  Biso   1.000  O 
  C85      1.0000 0.50512  0.12546  0.74080  Biso   1.000  C 
  O80      1.0000 0.55413  0.13155  0.74209  Biso   1.000  O 
  O81      1.0000 0.67005  0.12277  0.92715  Biso   1.000  O 
  C86      1.0000 0.71299  0.17178  0.92586  Biso   1.000  C 
  O82      1.0000 0.75592  0.22080  0.92458  Biso   1.000  O 
  O83      1.0000 0.87723  0.54729  0.92715  Biso   1.000  O 
  C87      1.0000 0.82822  0.54120  0.92586  Biso   1.000  C 
  O84      1.0000 0.77920  0.53512  0.92458  Biso   1.000  O 
  O85      1.0000 0.66328  0.54390  0.73952  Biso   1.000  O 
  C88      1.0000 0.62035  0.49488  0.74080  Biso   1.000  C 
  O86      1.0000 0.57741  0.44587  0.74209  Biso   1.000  O 
  O87      1.0000 0.45271  0.32995  0.92715  Biso   1.000  O 
  C89      1.0000 0.45880  0.28701  0.92586  Biso   1.000  C 
  O88      1.0000 0.46488  0.24408  0.92458  Biso   1.000  O 
  O89      1.0000 0.21057  0.21395  0.59381  Biso   1.000  O 
  C90      1.0000 0.16155  0.20787  0.59253  Biso   1.000  C 
  O90      1.0000 0.11253  0.20179  0.59125  Biso   1.000  O 
