data_image0
_cell_length_a       18.5778
_cell_length_b       18.5778
_cell_length_c       37.2977
_cell_angle_alpha    90
_cell_angle_beta     90
_cell_angle_gamma    90

_symmetry_space_group_name_H-M    "P 1"
_symmetry_int_tables_number       1

loop_
  _symmetry_equiv_pos_as_xyz
  'x, y, z'

loop_
  _atom_site_label
  _atom_site_occupancy
  _atom_site_fract_x
  _atom_site_fract_y
  _atom_site_fract_z
  _atom_site_thermal_displace_type
  _atom_site_B_iso_or_equiv
  _atom_site_type_symbol
  Al1      1.0000 0.36561  0.40859  0.57970  Biso   1.000  Al
  O1       1.0000 0.29596  0.33505  0.58282  Biso   1.000  O 
  C1       1.0000 0.29472  0.27520  0.56644  Biso   1.000  C 
  C2       1.0000 0.29090  0.20940  0.58918  Biso   1.000  C 
  C3       1.0000 0.29430  0.14210  0.57381  Biso   1.000  C 
  C4       1.0000 0.29900  0.08090  0.59542  Biso   1.000  C 
  H1       1.0000 0.30114  0.03450  0.58477  Biso   1.000  H 
  C5       1.0000 0.30070  0.08790  0.63252  Biso   1.000  C 
  C6       1.0000 0.30800  0.02370  0.65570  Biso   1.000  C 
  C7       1.0000 0.27200  0.02080  0.68894  Biso   1.000  C 
  H2       1.0000 0.24322  0.06038  0.69634  Biso   1.000  H 
  C8       1.0000 0.27810  0.96100  0.71102  Biso   1.000  C 
  C9       1.0000 0.31990  0.90330  0.70002  Biso   1.000  C 
  H3       1.0000 0.32455  0.86245  0.71514  Biso   1.000  H 
  C10      1.0000 0.35530  0.90460  0.66693  Biso   1.000  C 
  C11      1.0000 0.34940  0.96480  0.64548  Biso   1.000  C 
  H4       1.0000 0.37426  0.96607  0.62322  Biso   1.000  H 
  C12      1.0000 0.39700  0.84090  0.65460  Biso   1.000  C 
  C13      1.0000 0.36930  0.77220  0.65988  Biso   1.000  C 
  H5       1.0000 0.32529  0.76648  0.67250  Biso   1.000  H 
  C14      1.0000 0.40500  0.71200  0.64700  Biso   1.000  C 
  H6       1.0000 0.38542  0.66536  0.65077  Biso   1.000  H 
  C15      1.0000 0.46950  0.71990  0.62859  Biso   1.000  C 
  C16      1.0000 0.49900  0.78820  0.62385  Biso   1.000  C 
  H7       1.0000 0.54396  0.79364  0.61199  Biso   1.000  H 
  C17      1.0000 0.46290  0.84800  0.63643  Biso   1.000  C 
  H8       1.0000 0.48276  0.89452  0.63275  Biso   1.000  H 
  C18      1.0000 0.50640  0.65411  0.61516  Biso   1.000  C 
  O2       1.0000 0.56920  0.65954  0.60279  Biso   1.000  O 
  Al2      1.0000 0.63439  0.59141  0.57970  Biso   1.000  Al
  O3       1.0000 0.56874  0.51854  0.58016  Biso   1.000  O 
  H9       1.0000 0.57010  0.48638  0.56037  Biso   1.000  H 
  Al3      1.0000 0.50000  0.50000  0.61459  Biso   1.000  Al
  O4       1.0000 0.43126  0.48146  0.58016  Biso   1.000  O 
  H10      1.0000 0.42990  0.51362  0.56037  Biso   1.000  H 
  O5       1.0000 0.43219  0.48080  0.65193  Biso   1.000  O 
  C19      1.0000 0.36850  0.45863  0.65258  Biso   1.000  C 
  C20      1.0000 0.33050  0.45930  0.68774  Biso   1.000  C 
  C21      1.0000 0.36260  0.49190  0.71725  Biso   1.000  C 
  H11      1.0000 0.40845  0.51403  0.71505  Biso   1.000  H 
  C22      1.0000 0.32670  0.49170  0.75018  Biso   1.000  C 
  C23      1.0000 0.26040  0.45970  0.75387  Biso   1.000  C 
  C24      1.0000 0.22850  0.42700  0.72412  Biso   1.000  C 
  H12      1.0000 0.18286  0.40430  0.72638  Biso   1.000  H 
  C25      1.0000 0.26340  0.42770  0.69146  Biso   1.000  C 
  H13      1.0000 0.24100  0.40621  0.67121  Biso   1.000  H 
  C26      1.0000 0.22190  0.46100  0.78898  Biso   1.000  C 
  C27      1.0000 0.18010  0.40330  0.79998  Biso   1.000  C 
  H14      1.0000 0.17545  0.36245  0.78486  Biso   1.000  H 
  C28      1.0000 0.14470  0.40460  0.83307  Biso   1.000  C 
  C29      1.0000 0.15060  0.46480  0.85452  Biso   1.000  C 
  H15      1.0000 0.12574  0.46607  0.87678  Biso   1.000  H 
  C30      1.0000 0.19200  0.52370  0.84430  Biso   1.000  C 
  C31      1.0000 0.19930  0.58790  0.86748  Biso   1.000  C 
  C32      1.0000 0.20100  0.58090  0.90458  Biso   1.000  C 
  H16      1.0000 0.19886  0.53450  0.91523  Biso   1.000  H 
  C33      1.0000 0.20570  0.64210  0.92619  Biso   1.000  C 
  H17      1.0000 0.20669  0.63727  0.95155  Biso   1.000  H 
  C34      1.0000 0.20910  0.70940  0.91082  Biso   1.000  C 
  C35      1.0000 0.20830  0.71660  0.87356  Biso   1.000  C 
  H18      1.0000 0.21129  0.76294  0.86294  Biso   1.000  H 
  C36      1.0000 0.20320  0.65600  0.85216  Biso   1.000  C 
  H19      1.0000 0.20226  0.66101  0.82682  Biso   1.000  H 
  C37      1.0000 0.20528  0.77520  0.93356  Biso   1.000  C 
  O6       1.0000 0.20404  0.83505  0.91718  Biso   1.000  O 
  Al4      1.0000 0.13439  0.90859  0.92030  Biso   1.000  Al
  O7       1.0000 0.16710  0.93521  0.87388  Biso   1.000  O 
  C38      1.0000 0.13150  0.95863  0.84742  Biso   1.000  C 
  C39      1.0000 0.16950  0.95930  0.81226  Biso   1.000  C 
  C40      1.0000 0.23660  0.92770  0.80854  Biso   1.000  C 
  C41      1.0000 0.27150  0.92700  0.77588  Biso   1.000  C 
  H20      1.0000 0.31714  0.90430  0.77362  Biso   1.000  H 
  C42      1.0000 0.23960  0.95970  0.74613  Biso   1.000  C 
  C43      1.0000 0.17330  0.99170  0.74982  Biso   1.000  C 
  C44      1.0000 0.13740  0.99190  0.78275  Biso   1.000  C 
  H21      1.0000 0.09155  0.01403  0.78495  Biso   1.000  H 
  H22      1.0000 0.15148  0.01410  0.72966  Biso   1.000  H 
  H23      1.0000 0.25900  0.90621  0.82879  Biso   1.000  H 
  O8       1.0000 0.06781  0.98080  0.84807  Biso   1.000  O 
  Al5      1.0000 0.00000  0.00000  0.88541  Biso   1.000  Al
  O9       1.0000 0.02944  0.09656  0.88240  Biso   1.000  O 
  C45      1.0000 0.99360  0.15411  0.88484  Biso   1.000  C 
  C46      1.0000 0.03050  0.21990  0.87141  Biso   1.000  C 
  C47      1.0000 0.09500  0.21200  0.85300  Biso   1.000  C 
  H24      1.0000 0.11458  0.16536  0.84923  Biso   1.000  H 
  C48      1.0000 0.13070  0.27220  0.84012  Biso   1.000  C 
  H25      1.0000 0.17471  0.26648  0.82750  Biso   1.000  H 
  C49      1.0000 0.10300  0.34090  0.84540  Biso   1.000  C 
  C50      1.0000 0.03710  0.34800  0.86357  Biso   1.000  C 
  H26      1.0000 0.01724  0.39452  0.86725  Biso   1.000  H 
  C51      1.0000 0.00100  0.28820  0.87615  Biso   1.000  C 
  H27      1.0000 0.95604  0.29364  0.88801  Biso   1.000  H 
  O10      1.0000 0.93080  0.15954  0.89721  Biso   1.000  O 
  Al6      1.0000 0.86561  0.09141  0.92030  Biso   1.000  Al
  O11      1.0000 0.83290  0.06479  0.87388  Biso   1.000  O 
  C52      1.0000 0.86850  0.04137  0.84742  Biso   1.000  C 
  C53      1.0000 0.83050  0.04070  0.81226  Biso   1.000  C 
  C54      1.0000 0.86260  0.00810  0.78275  Biso   1.000  C 
  C55      1.0000 0.82670  0.00830  0.74982  Biso   1.000  C 
  C56      1.0000 0.76040  0.04030  0.74613  Biso   1.000  C 
  C57      1.0000 0.72190  0.03900  0.71102  Biso   1.000  C 
  C58      1.0000 0.68010  0.09670  0.70002  Biso   1.000  C 
  H28      1.0000 0.67545  0.13755  0.71514  Biso   1.000  H 
  C59      1.0000 0.64470  0.09540  0.66693  Biso   1.000  C 
  C60      1.0000 0.65060  0.03520  0.64548  Biso   1.000  C 
  H29      1.0000 0.62574  0.03393  0.62322  Biso   1.000  H 
  C61      1.0000 0.69200  0.97630  0.65570  Biso   1.000  C 
  C62      1.0000 0.69930  0.91210  0.63252  Biso   1.000  C 
  C63      1.0000 0.70100  0.91910  0.59542  Biso   1.000  C 
  H30      1.0000 0.69886  0.96550  0.58477  Biso   1.000  H 
  C64      1.0000 0.70570  0.85790  0.57381  Biso   1.000  C 
  H31      1.0000 0.70669  0.86273  0.54845  Biso   1.000  H 
  C65      1.0000 0.70910  0.79060  0.58918  Biso   1.000  C 
  C66      1.0000 0.70830  0.78340  0.62644  Biso   1.000  C 
  H32      1.0000 0.71128  0.73706  0.63706  Biso   1.000  H 
  C67      1.0000 0.70320  0.84400  0.64784  Biso   1.000  C 
  H33      1.0000 0.70226  0.83899  0.67318  Biso   1.000  H 
  C68      1.0000 0.70528  0.72480  0.56644  Biso   1.000  C 
  O12      1.0000 0.70404  0.66495  0.58282  Biso   1.000  O 
  O13      1.0000 0.70226  0.73219  0.53308  Biso   1.000  O 
  Al7      1.0000 0.66367  0.66367  0.50000  Biso   1.000  Al
  O14      1.0000 0.62500  0.60648  0.46460  Biso   1.000  O 
  H34      1.0000 0.62202  0.55652  0.46982  Biso   1.000  H 
  Al8      1.0000 0.59141  0.63439  0.42030  Biso   1.000  Al
  O15      1.0000 0.56479  0.66710  0.37388  Biso   1.000  O 
  C69      1.0000 0.54137  0.63150  0.34742  Biso   1.000  C 
  C70      1.0000 0.54070  0.66950  0.31226  Biso   1.000  C 
  C71      1.0000 0.50810  0.63740  0.28275  Biso   1.000  C 
  H35      1.0000 0.48597  0.59155  0.28495  Biso   1.000  H 
  C72      1.0000 0.50830  0.67330  0.24982  Biso   1.000  C 
  C73      1.0000 0.54030  0.73960  0.24613  Biso   1.000  C 
  C74      1.0000 0.53900  0.77810  0.21102  Biso   1.000  C 
  C75      1.0000 0.59670  0.81990  0.20002  Biso   1.000  C 
  H36      1.0000 0.63755  0.82455  0.21514  Biso   1.000  H 
  C76      1.0000 0.59540  0.85530  0.16693  Biso   1.000  C 
  C77      1.0000 0.53520  0.84940  0.14548  Biso   1.000  C 
  H37      1.0000 0.53393  0.87426  0.12322  Biso   1.000  H 
  C78      1.0000 0.47630  0.80800  0.15570  Biso   1.000  C 
  C79      1.0000 0.41210  0.80070  0.13252  Biso   1.000  C 
  C80      1.0000 0.41910  0.79900  0.09542  Biso   1.000  C 
  H38      1.0000 0.46550  0.80114  0.08477  Biso   1.000  H 
  C81      1.0000 0.35790  0.79430  0.07381  Biso   1.000  C 
  H39      1.0000 0.36273  0.79331  0.04845  Biso   1.000  H 
  C82      1.0000 0.29060  0.79090  0.08918  Biso   1.000  C 
  C83      1.0000 0.28340  0.79170  0.12644  Biso   1.000  C 
  H40      1.0000 0.23706  0.78872  0.13706  Biso   1.000  H 
  C84      1.0000 0.34400  0.79680  0.14784  Biso   1.000  C 
  H41      1.0000 0.33899  0.79774  0.17318  Biso   1.000  H 
  C85      1.0000 0.22480  0.79472  0.06644  Biso   1.000  C 
  O16      1.0000 0.16495  0.79596  0.08282  Biso   1.000  O 
  Al9      1.0000 0.09141  0.86561  0.07970  Biso   1.000  Al
  O17      1.0000 0.12500  0.89352  0.03540  Biso   1.000  O 
  H42      1.0000 0.12202  0.94348  0.03018  Biso   1.000  H 
  Al10     1.0000 0.16367  0.83633  0.00000  Biso   1.000  Al
  O18      1.0000 0.09461  0.76206  0.01030  Biso   1.000  O 
  C86      1.0000 0.04120  0.75480  0.03151  Biso   1.000  C 
  H43      1.0000 0.00724  0.71802  0.02623  Biso   1.000  H 
  O19      1.0000 0.02995  0.79379  0.05963  Biso   1.000  O 
  O20      1.0000 0.23219  0.79774  0.03308  Biso   1.000  O 
  O21      1.0000 0.10648  0.87500  0.96460  Biso   1.000  O 
  H44      1.0000 0.05652  0.87798  0.96982  Biso   1.000  H 
  O22      1.0000 0.20226  0.76781  0.96692  Biso   1.000  O 
  O23      1.0000 0.23794  0.90539  0.98970  Biso   1.000  O 
  C87      1.0000 0.24520  0.95880  0.96849  Biso   1.000  C 
  H45      1.0000 0.28198  0.99276  0.97377  Biso   1.000  H 
  O24      1.0000 0.20621  0.97005  0.94037  Biso   1.000  O 
  O25      1.0000 0.01854  0.93126  0.08016  Biso   1.000  O 
  Al11     1.0000 0.00000  0.00000  0.11459  Biso   1.000  Al
  O26      1.0000 0.09656  0.02944  0.11760  Biso   1.000  O 
  C88      1.0000 0.15411  0.99360  0.11516  Biso   1.000  C 
  C89      1.0000 0.21990  0.03050  0.12859  Biso   1.000  C 
  C90      1.0000 0.21200  0.09500  0.14700  Biso   1.000  C 
  H46      1.0000 0.16536  0.11458  0.15077  Biso   1.000  H 
  C91      1.0000 0.27220  0.13070  0.15988  Biso   1.000  C 
  H47      1.0000 0.26648  0.17471  0.17250  Biso   1.000  H 
  C92      1.0000 0.34090  0.10300  0.15460  Biso   1.000  C 
  C93      1.0000 0.40460  0.14470  0.16693  Biso   1.000  C 
  C94      1.0000 0.46480  0.15060  0.14548  Biso   1.000  C 
  H48      1.0000 0.46607  0.12574  0.12322  Biso   1.000  H 
  C95      1.0000 0.52370  0.19200  0.15570  Biso   1.000  C 
  C96      1.0000 0.58790  0.19930  0.13252  Biso   1.000  C 
  C97      1.0000 0.58090  0.20100  0.09542  Biso   1.000  C 
  H49      1.0000 0.53450  0.19886  0.08477  Biso   1.000  H 
  C98      1.0000 0.64210  0.20570  0.07381  Biso   1.000  C 
  H50      1.0000 0.63727  0.20669  0.04845  Biso   1.000  H 
  C99      1.0000 0.70940  0.20910  0.08918  Biso   1.000  C 
  C100     1.0000 0.71660  0.20830  0.12644  Biso   1.000  C 
  H51      1.0000 0.76294  0.21129  0.13706  Biso   1.000  H 
  C101     1.0000 0.65600  0.20320  0.14784  Biso   1.000  C 
  H52      1.0000 0.66101  0.20226  0.17318  Biso   1.000  H 
  C102     1.0000 0.77520  0.20528  0.06644  Biso   1.000  C 
  O27      1.0000 0.83505  0.20404  0.08282  Biso   1.000  O 
  Al12     1.0000 0.90859  0.13439  0.07970  Biso   1.000  Al
  O28      1.0000 0.98146  0.06874  0.08016  Biso   1.000  O 
  H53      1.0000 0.01362  0.07010  0.06038  Biso   1.000  H 
  O29      1.0000 0.97005  0.20621  0.05963  Biso   1.000  O 
  C103     1.0000 0.95880  0.24520  0.03151  Biso   1.000  C 
  H54      1.0000 0.99276  0.28198  0.02623  Biso   1.000  H 
  O30      1.0000 0.90539  0.23794  0.01030  Biso   1.000  O 
  Al13     1.0000 0.83633  0.16367  0.00000  Biso   1.000  Al
  O31      1.0000 0.76781  0.20226  0.03308  Biso   1.000  O 
  O32      1.0000 0.87500  0.10648  0.03540  Biso   1.000  O 
  H55      1.0000 0.87798  0.05652  0.03018  Biso   1.000  H 
  O33      1.0000 0.89352  0.12500  0.96460  Biso   1.000  O 
  H56      1.0000 0.94348  0.12202  0.96982  Biso   1.000  H 
  O34      1.0000 0.79774  0.23219  0.96692  Biso   1.000  O 
  C104     1.0000 0.79472  0.22480  0.93356  Biso   1.000  C 
  C105     1.0000 0.79090  0.29060  0.91082  Biso   1.000  C 
  C106     1.0000 0.79170  0.28340  0.87356  Biso   1.000  C 
  H57      1.0000 0.78872  0.23706  0.86294  Biso   1.000  H 
  C107     1.0000 0.79680  0.34400  0.85216  Biso   1.000  C 
  C108     1.0000 0.80070  0.41210  0.86748  Biso   1.000  C 
  C109     1.0000 0.79900  0.41910  0.90458  Biso   1.000  C 
  H58      1.0000 0.80114  0.46550  0.91523  Biso   1.000  H 
  C110     1.0000 0.79430  0.35790  0.92619  Biso   1.000  C 
  H59      1.0000 0.79331  0.36273  0.95155  Biso   1.000  H 
  C111     1.0000 0.80800  0.47630  0.84430  Biso   1.000  C 
  C112     1.0000 0.84940  0.53520  0.85452  Biso   1.000  C 
  H60      1.0000 0.87426  0.53393  0.87678  Biso   1.000  H 
  C113     1.0000 0.85530  0.59540  0.83307  Biso   1.000  C 
  C114     1.0000 0.81990  0.59670  0.79998  Biso   1.000  C 
  H61      1.0000 0.82455  0.63755  0.78486  Biso   1.000  H 
  C115     1.0000 0.77810  0.53900  0.78898  Biso   1.000  C 
  C116     1.0000 0.77200  0.47920  0.81106  Biso   1.000  C 
  H62      1.0000 0.74322  0.43962  0.80366  Biso   1.000  H 
  C117     1.0000 0.73960  0.54030  0.75387  Biso   1.000  C 
  C118     1.0000 0.77150  0.57300  0.72412  Biso   1.000  C 
  H63      1.0000 0.81714  0.59570  0.72638  Biso   1.000  H 
  C119     1.0000 0.73660  0.57230  0.69146  Biso   1.000  C 
  H64      1.0000 0.75900  0.59379  0.67121  Biso   1.000  H 
  C120     1.0000 0.66950  0.54070  0.68774  Biso   1.000  C 
  C121     1.0000 0.63740  0.50810  0.71725  Biso   1.000  C 
  H65      1.0000 0.59155  0.48597  0.71505  Biso   1.000  H 
  C122     1.0000 0.67330  0.50830  0.75018  Biso   1.000  C 
  H66      1.0000 0.65148  0.48590  0.77034  Biso   1.000  H 
  C123     1.0000 0.63150  0.54137  0.65258  Biso   1.000  C 
  O35      1.0000 0.56781  0.51920  0.65193  Biso   1.000  O 
  O36      1.0000 0.66710  0.56479  0.62612  Biso   1.000  O 
  C124     1.0000 0.89700  0.65910  0.84540  Biso   1.000  C 
  C125     1.0000 0.86930  0.72780  0.84012  Biso   1.000  C 
  H67      1.0000 0.82529  0.73352  0.82750  Biso   1.000  H 
  C126     1.0000 0.90500  0.78800  0.85300  Biso   1.000  C 
  H68      1.0000 0.88542  0.83464  0.84923  Biso   1.000  H 
  C127     1.0000 0.96950  0.78010  0.87141  Biso   1.000  C 
  C128     1.0000 0.99900  0.71180  0.87615  Biso   1.000  C 
  H69      1.0000 0.04396  0.70636  0.88801  Biso   1.000  H 
  C129     1.0000 0.96290  0.65200  0.86357  Biso   1.000  C 
  H70      1.0000 0.98276  0.60549  0.86725  Biso   1.000  H 
  C130     1.0000 0.00640  0.84589  0.88484  Biso   1.000  C 
  O37      1.0000 0.06920  0.84046  0.89721  Biso   1.000  O 
  O38      1.0000 0.97056  0.90344  0.88240  Biso   1.000  O 
  H71      1.0000 0.79774  0.33899  0.82682  Biso   1.000  H 
  O39      1.0000 0.79596  0.16495  0.91718  Biso   1.000  O 
  O40      1.0000 0.76206  0.09461  0.98970  Biso   1.000  O 
  C131     1.0000 0.75480  0.04120  0.96849  Biso   1.000  C 
  H72      1.0000 0.71802  0.00724  0.97377  Biso   1.000  H 
  O41      1.0000 0.79379  0.02995  0.94037  Biso   1.000  O 
  O42      1.0000 0.84046  0.06920  0.10279  Biso   1.000  O 
  C132     1.0000 0.84589  0.00640  0.11516  Biso   1.000  C 
  O43      1.0000 0.90344  0.97056  0.11760  Biso   1.000  O 
  C133     1.0000 0.78010  0.96950  0.12859  Biso   1.000  C 
  C134     1.0000 0.71180  0.99900  0.12385  Biso   1.000  C 
  H73      1.0000 0.70636  0.04396  0.11199  Biso   1.000  H 
  C135     1.0000 0.65200  0.96290  0.13643  Biso   1.000  C 
  C136     1.0000 0.65910  0.89700  0.15460  Biso   1.000  C 
  C137     1.0000 0.72780  0.86930  0.15988  Biso   1.000  C 
  H74      1.0000 0.73352  0.82529  0.17250  Biso   1.000  H 
  C138     1.0000 0.78800  0.90500  0.14700  Biso   1.000  C 
  H75      1.0000 0.83464  0.88542  0.15077  Biso   1.000  H 
  H76      1.0000 0.60549  0.98276  0.13275  Biso   1.000  H 
  O44      1.0000 0.93521  0.16710  0.12612  Biso   1.000  O 
  C139     1.0000 0.95863  0.13150  0.15258  Biso   1.000  C 
  C140     1.0000 0.95930  0.16950  0.18774  Biso   1.000  C 
  C141     1.0000 0.92770  0.23660  0.19146  Biso   1.000  C 
  H77      1.0000 0.90621  0.25900  0.17121  Biso   1.000  H 
  C142     1.0000 0.92700  0.27150  0.22412  Biso   1.000  C 
  H78      1.0000 0.90430  0.31714  0.22638  Biso   1.000  H 
  C143     1.0000 0.95970  0.23960  0.25387  Biso   1.000  C 
  C144     1.0000 0.96100  0.27810  0.28898  Biso   1.000  C 
  C145     1.0000 0.90330  0.31990  0.29998  Biso   1.000  C 
  H79      1.0000 0.86245  0.32455  0.28486  Biso   1.000  H 
  C146     1.0000 0.90460  0.35530  0.33307  Biso   1.000  C 
  C147     1.0000 0.96480  0.34940  0.35452  Biso   1.000  C 
  H80      1.0000 0.96607  0.37426  0.37678  Biso   1.000  H 
  C148     1.0000 0.02370  0.30800  0.34430  Biso   1.000  C 
  C149     1.0000 0.08790  0.30070  0.36748  Biso   1.000  C 
  C150     1.0000 0.08090  0.29900  0.40458  Biso   1.000  C 
  H81      1.0000 0.03450  0.30114  0.41523  Biso   1.000  H 
  C151     1.0000 0.14210  0.29430  0.42619  Biso   1.000  C 
  H82      1.0000 0.13727  0.29331  0.45155  Biso   1.000  H 
  C152     1.0000 0.20940  0.29090  0.41082  Biso   1.000  C 
  C153     1.0000 0.21660  0.29170  0.37356  Biso   1.000  C 
  H83      1.0000 0.26294  0.28871  0.36294  Biso   1.000  H 
  C154     1.0000 0.15600  0.29680  0.35216  Biso   1.000  C 
  H84      1.0000 0.16101  0.29774  0.32682  Biso   1.000  H 
  C155     1.0000 0.27520  0.29472  0.43356  Biso   1.000  C 
  O45      1.0000 0.33505  0.29596  0.41718  Biso   1.000  O 
  Al14     1.0000 0.40859  0.36561  0.42030  Biso   1.000  Al
  O46      1.0000 0.43521  0.33290  0.37388  Biso   1.000  O 
  C156     1.0000 0.45863  0.36850  0.34742  Biso   1.000  C 
  C157     1.0000 0.45930  0.33050  0.31226  Biso   1.000  C 
  C158     1.0000 0.49190  0.36260  0.28275  Biso   1.000  C 
  H85      1.0000 0.51403  0.40845  0.28495  Biso   1.000  H 
  C159     1.0000 0.49170  0.32670  0.24982  Biso   1.000  C 
  C160     1.0000 0.45970  0.26040  0.24613  Biso   1.000  C 
  C161     1.0000 0.46100  0.22190  0.21102  Biso   1.000  C 
  C162     1.0000 0.40330  0.18010  0.20002  Biso   1.000  C 
  H86      1.0000 0.36245  0.17545  0.21514  Biso   1.000  H 
  C163     1.0000 0.52080  0.22800  0.18894  Biso   1.000  C 
  H87      1.0000 0.56038  0.25678  0.19634  Biso   1.000  H 
  C164     1.0000 0.42700  0.22850  0.27588  Biso   1.000  C 
  H88      1.0000 0.40430  0.18286  0.27362  Biso   1.000  H 
  C165     1.0000 0.42770  0.26340  0.30854  Biso   1.000  C 
  H89      1.0000 0.40621  0.24100  0.32879  Biso   1.000  H 
  H90      1.0000 0.51410  0.34852  0.22966  Biso   1.000  H 
  O47      1.0000 0.48080  0.43219  0.34807  Biso   1.000  O 
  Al15     1.0000 0.50000  0.50000  0.38541  Biso   1.000  Al
  O48      1.0000 0.48146  0.43126  0.41984  Biso   1.000  O 
  H91      1.0000 0.51362  0.42990  0.43963  Biso   1.000  H 
  O49      1.0000 0.59656  0.47056  0.38240  Biso   1.000  O 
  C166     1.0000 0.65411  0.50640  0.38484  Biso   1.000  C 
  C167     1.0000 0.71990  0.46950  0.37141  Biso   1.000  C 
  C168     1.0000 0.71200  0.40500  0.35300  Biso   1.000  C 
  H92      1.0000 0.66536  0.38542  0.34923  Biso   1.000  H 
  C169     1.0000 0.77220  0.36930  0.34012  Biso   1.000  C 
  C170     1.0000 0.84090  0.39700  0.34540  Biso   1.000  C 
  C171     1.0000 0.84800  0.46290  0.36357  Biso   1.000  C 
  H93      1.0000 0.89452  0.48276  0.36725  Biso   1.000  H 
  C172     1.0000 0.78820  0.49900  0.37615  Biso   1.000  C 
  H94      1.0000 0.79364  0.54396  0.38801  Biso   1.000  H 
  H95      1.0000 0.76648  0.32529  0.32750  Biso   1.000  H 
  O50      1.0000 0.65954  0.56920  0.39721  Biso   1.000  O 
  O51      1.0000 0.40344  0.52944  0.38240  Biso   1.000  O 
  C173     1.0000 0.34589  0.49360  0.38484  Biso   1.000  C 
  C174     1.0000 0.28010  0.53050  0.37141  Biso   1.000  C 
  C175     1.0000 0.21180  0.50100  0.37615  Biso   1.000  C 
  H96      1.0000 0.20636  0.45604  0.38801  Biso   1.000  H 
  C176     1.0000 0.15200  0.53710  0.36357  Biso   1.000  C 
  C177     1.0000 0.15910  0.60300  0.34540  Biso   1.000  C 
  C178     1.0000 0.09540  0.64470  0.33307  Biso   1.000  C 
  C179     1.0000 0.09670  0.68010  0.29998  Biso   1.000  C 
  H97      1.0000 0.13755  0.67545  0.28486  Biso   1.000  H 
  C180     1.0000 0.03900  0.72190  0.28898  Biso   1.000  C 
  C181     1.0000 0.97920  0.72800  0.31106  Biso   1.000  C 
  C182     1.0000 0.97630  0.69200  0.34430  Biso   1.000  C 
  C183     1.0000 0.03520  0.65060  0.35452  Biso   1.000  C 
  H98      1.0000 0.03393  0.62574  0.37678  Biso   1.000  H 
  C184     1.0000 0.91210  0.69930  0.36748  Biso   1.000  C 
  C185     1.0000 0.91910  0.70100  0.40458  Biso   1.000  C 
  H99      1.0000 0.96550  0.69886  0.41523  Biso   1.000  H 
  C186     1.0000 0.85790  0.70570  0.42619  Biso   1.000  C 
  H100     1.0000 0.86273  0.70669  0.45155  Biso   1.000  H 
  C187     1.0000 0.79060  0.70910  0.41082  Biso   1.000  C 
  C188     1.0000 0.78340  0.70830  0.37356  Biso   1.000  C 
  H101     1.0000 0.73706  0.71128  0.36294  Biso   1.000  H 
  C189     1.0000 0.84400  0.70320  0.35216  Biso   1.000  C 
  H102     1.0000 0.83899  0.70226  0.32682  Biso   1.000  H 
  C190     1.0000 0.72480  0.70528  0.43356  Biso   1.000  C 
  O52      1.0000 0.66495  0.70404  0.41718  Biso   1.000  O 
  O53      1.0000 0.73219  0.70226  0.46692  Biso   1.000  O 
  H103     1.0000 0.93962  0.75678  0.30366  Biso   1.000  H 
  C191     1.0000 0.04030  0.76040  0.25387  Biso   1.000  C 
  C192     1.0000 0.07300  0.72850  0.22412  Biso   1.000  C 
  H104     1.0000 0.09570  0.68286  0.22638  Biso   1.000  H 
  C193     1.0000 0.07230  0.76340  0.19146  Biso   1.000  C 
  H105     1.0000 0.09379  0.74100  0.17121  Biso   1.000  H 
  C194     1.0000 0.04070  0.83050  0.18774  Biso   1.000  C 
  C195     1.0000 0.00810  0.86260  0.21725  Biso   1.000  C 
  C196     1.0000 0.00830  0.82670  0.25018  Biso   1.000  C 
  H106     1.0000 0.98590  0.84852  0.27034  Biso   1.000  H 
  H107     1.0000 0.98597  0.90845  0.21505  Biso   1.000  H 
  C197     1.0000 0.04137  0.86850  0.15258  Biso   1.000  C 
  O54      1.0000 0.01920  0.93219  0.15193  Biso   1.000  O 
  O55      1.0000 0.06479  0.83290  0.12612  Biso   1.000  O 
  C198     1.0000 0.22780  0.63070  0.34012  Biso   1.000  C 
  H108     1.0000 0.23352  0.67471  0.32750  Biso   1.000  H 
  C199     1.0000 0.28800  0.59500  0.35300  Biso   1.000  C 
  H109     1.0000 0.33464  0.61458  0.34923  Biso   1.000  H 
  H110     1.0000 0.10548  0.51724  0.36725  Biso   1.000  H 
  O56      1.0000 0.34046  0.43080  0.39721  Biso   1.000  O 
  O57      1.0000 0.51920  0.56781  0.34807  Biso   1.000  O 
  O58      1.0000 0.51854  0.56874  0.41984  Biso   1.000  O 
  H111     1.0000 0.48638  0.57010  0.43963  Biso   1.000  H 
  O59      1.0000 0.47005  0.29379  0.44037  Biso   1.000  O 
  C200     1.0000 0.45880  0.25480  0.46849  Biso   1.000  C 
  H112     1.0000 0.49276  0.21802  0.47377  Biso   1.000  H 
  O60      1.0000 0.40539  0.26206  0.48970  Biso   1.000  O 
  Al16     1.0000 0.33633  0.33633  0.50000  Biso   1.000  Al
  O61      1.0000 0.26781  0.29774  0.46692  Biso   1.000  O 
  O62      1.0000 0.37500  0.39352  0.46460  Biso   1.000  O 
  H113     1.0000 0.37798  0.44348  0.46982  Biso   1.000  H 
  O63      1.0000 0.29774  0.26781  0.53308  Biso   1.000  O 
  O64      1.0000 0.39352  0.37500  0.53540  Biso   1.000  O 
  H114     1.0000 0.44348  0.37798  0.53018  Biso   1.000  H 
  O65      1.0000 0.26206  0.40539  0.51030  Biso   1.000  O 
  C201     1.0000 0.25480  0.45880  0.53151  Biso   1.000  C 
  H115     1.0000 0.21802  0.49276  0.52623  Biso   1.000  H 
  O66      1.0000 0.29379  0.47005  0.55963  Biso   1.000  O 
  C202     1.0000 0.02080  0.27200  0.31106  Biso   1.000  C 
  H116     1.0000 0.06038  0.24322  0.30366  Biso   1.000  H 
  C203     1.0000 0.99170  0.17330  0.25018  Biso   1.000  C 
  C204     1.0000 0.99190  0.13740  0.21725  Biso   1.000  C 
  H117     1.0000 0.01403  0.09155  0.21505  Biso   1.000  H 
  H118     1.0000 0.01410  0.15148  0.27034  Biso   1.000  H 
  O67      1.0000 0.98080  0.06781  0.15193  Biso   1.000  O 
  C205     1.0000 0.34800  0.03710  0.13643  Biso   1.000  C 
  C206     1.0000 0.28820  0.00100  0.12385  Biso   1.000  C 
  H119     1.0000 0.29364  0.95604  0.11199  Biso   1.000  H 
  H120     1.0000 0.39452  0.01724  0.13275  Biso   1.000  H 
  O68      1.0000 0.15954  0.93080  0.10279  Biso   1.000  O 
  H121     1.0000 0.98638  0.92990  0.06038  Biso   1.000  H 
  C207     1.0000 0.47920  0.77200  0.18894  Biso   1.000  C 
  H122     1.0000 0.43962  0.74322  0.19634  Biso   1.000  H 
  C208     1.0000 0.57300  0.77150  0.27588  Biso   1.000  C 
  H123     1.0000 0.59570  0.81714  0.27362  Biso   1.000  H 
  C209     1.0000 0.57230  0.73660  0.30854  Biso   1.000  C 
  H124     1.0000 0.59379  0.75900  0.32879  Biso   1.000  H 
  H125     1.0000 0.48590  0.65148  0.22966  Biso   1.000  H 
  O69      1.0000 0.52995  0.70621  0.44037  Biso   1.000  O 
  C210     1.0000 0.54120  0.74520  0.46849  Biso   1.000  C 
  H126     1.0000 0.50724  0.78198  0.47377  Biso   1.000  H 
  O70      1.0000 0.59461  0.73794  0.48970  Biso   1.000  O 
  O71      1.0000 0.60648  0.62500  0.53540  Biso   1.000  O 
  H127     1.0000 0.55652  0.62202  0.53018  Biso   1.000  H 
  O72      1.0000 0.73794  0.59461  0.51030  Biso   1.000  O 
  C211     1.0000 0.74520  0.54120  0.53151  Biso   1.000  C 
  H128     1.0000 0.78198  0.50724  0.52623  Biso   1.000  H 
  O73      1.0000 0.70621  0.52995  0.55963  Biso   1.000  O 
  C212     1.0000 0.72800  0.97920  0.68894  Biso   1.000  C 
  H129     1.0000 0.75678  0.93962  0.69634  Biso   1.000  H 
  C213     1.0000 0.60300  0.15910  0.65460  Biso   1.000  C 
  C214     1.0000 0.63070  0.22780  0.65988  Biso   1.000  C 
  H130     1.0000 0.67471  0.23352  0.67250  Biso   1.000  H 
  C215     1.0000 0.59500  0.28800  0.64700  Biso   1.000  C 
  H131     1.0000 0.61458  0.33464  0.65077  Biso   1.000  H 
  C216     1.0000 0.53050  0.28010  0.62859  Biso   1.000  C 
  C217     1.0000 0.50100  0.21180  0.62385  Biso   1.000  C 
  H132     1.0000 0.45604  0.20636  0.61199  Biso   1.000  H 
  C218     1.0000 0.53710  0.15200  0.63643  Biso   1.000  C 
  H133     1.0000 0.51724  0.10548  0.63275  Biso   1.000  H 
  C219     1.0000 0.49360  0.34589  0.61516  Biso   1.000  C 
  O74      1.0000 0.43080  0.34046  0.60279  Biso   1.000  O 
  O75      1.0000 0.52944  0.40344  0.61760  Biso   1.000  O 
  C220     1.0000 0.72850  0.07300  0.77588  Biso   1.000  C 
  H134     1.0000 0.68286  0.09570  0.77362  Biso   1.000  H 
  C221     1.0000 0.76340  0.07230  0.80854  Biso   1.000  C 
  H135     1.0000 0.74100  0.09379  0.82879  Biso   1.000  H 
  H136     1.0000 0.84852  0.98590  0.72966  Biso   1.000  H 
  H137     1.0000 0.90845  0.98597  0.78495  Biso   1.000  H 
  O76      1.0000 0.93219  0.01920  0.84807  Biso   1.000  O 
  O77      1.0000 0.93126  0.01854  0.91984  Biso   1.000  O 
  H138     1.0000 0.92990  0.98638  0.93963  Biso   1.000  H 
  O78      1.0000 0.06874  0.98146  0.91984  Biso   1.000  O 
  H139     1.0000 0.07010  0.01362  0.93963  Biso   1.000  H 
  C222     1.0000 0.22800  0.52080  0.81106  Biso   1.000  C 
  H140     1.0000 0.25678  0.56038  0.80366  Biso   1.000  H 
  H141     1.0000 0.34852  0.51410  0.77034  Biso   1.000  H 
  O79      1.0000 0.33290  0.43521  0.62612  Biso   1.000  O 
  O80      1.0000 0.47056  0.59656  0.61760  Biso   1.000  O 
  C223     1.0000 0.29680  0.15600  0.64784  Biso   1.000  C 
  C224     1.0000 0.29170  0.21660  0.62644  Biso   1.000  C 
  H142     1.0000 0.28871  0.26294  0.63706  Biso   1.000  H 
  H143     1.0000 0.29774  0.16101  0.67318  Biso   1.000  H 
  H144     1.0000 0.29331  0.13727  0.54845  Biso   1.000  H 
