data_image0
_cell_length_a       12.827
_cell_length_b       25.552
_cell_length_c       13.336
_cell_angle_alpha    90
_cell_angle_beta     118.418
_cell_angle_gamma    90

_symmetry_space_group_name_H-M    "P 1"
_symmetry_int_tables_number       1

loop_
  _symmetry_equiv_pos_as_xyz
  'x, y, z'

loop_
  _atom_site_label
  _atom_site_occupancy
  _atom_site_fract_x
  _atom_site_fract_y
  _atom_site_fract_z
  _atom_site_thermal_displace_type
  _atom_site_B_iso_or_equiv
  _atom_site_type_symbol
  Cu1      1.0000 0.75000  0.25000  0.00000  Biso   1.000  Cu
  N1       1.0000 0.63780  0.22629  0.84220  Biso   1.000  N 
  C1       1.0000 0.63900  0.18209  0.78540  Biso   1.000  C 
  C2       1.0000 0.53930  0.17868  0.68570  Biso   1.000  C 
  H1       1.0000 0.51800  0.15190  0.63230  Biso   1.000  H 
  N2       1.0000 0.47420  0.22332  0.67837  Biso   1.000  N 
  C3       1.0000 0.36010  0.23680  0.58800  Biso   1.000  C 
  C4       1.0000 0.29880  0.20100  0.51010  Biso   1.000  C 
  H2       1.0000 0.30526  0.16504  0.52194  Biso   1.000  H 
  C5       1.0000 0.21120  0.22950  0.39150  Biso   1.000  C 
  H3       1.0000 0.20936  0.22414  0.32165  Biso   1.000  H 
  C6       1.0000 0.13990  0.26320  0.41200  Biso   1.000  C 
  C7       1.0000 0.20120  0.29900  0.48990  Biso   1.000  C 
  C8       1.0000 0.28880  0.27050  0.60850  Biso   1.000  C 
  H4       1.0000 0.29064  0.27586  0.67835  Biso   1.000  H 
  H5       1.0000 0.19474  0.33496  0.47806  Biso   1.000  H 
  N3       1.0000 0.02580  0.27668  0.32163  Biso   1.000  N 
  C9       1.0000 0.96300  0.24995  0.22460  Biso   1.000  C 
  H6       1.0000 0.98737  0.21866  0.20678  Biso   1.000  H 
  N4       1.0000 0.86220  0.27371  0.15780  Biso   1.000  N 
  C10      1.0000 0.86100  0.31791  0.21460  Biso   1.000  C 
  H7       1.0000 0.79968  0.34222  0.18789  Biso   1.000  H 
  C11      1.0000 0.96070  0.32132  0.31430  Biso   1.000  C 
  H8       1.0000 0.98200  0.34810  0.36770  Biso   1.000  H 
  C12      1.0000 0.53700  0.25005  0.77540  Biso   1.000  C 
  H9       1.0000 0.51263  0.28134  0.79322  Biso   1.000  H 
  H10      1.0000 0.70032  0.15778  0.81211  Biso   1.000  H 
  F1       1.0000 0.90255  0.19459  0.99012  Biso   1.000  F 
  Si1      1.0000 0.00000  0.14824  0.00000  Biso   1.000  Si
  F2       1.0000 0.90237  0.10131  0.98670  Biso   1.000  F 
  F3       1.0000 0.94500  0.14866  0.85793  Biso   1.000  F 
  F4       1.0000 0.09763  0.10131  0.01330  Biso   1.000  F 
  F5       1.0000 0.05500  0.14866  0.14207  Biso   1.000  F 
  F6       1.0000 0.09745  0.19459  0.00988  Biso   1.000  F 
  Cu2      1.0000 0.25000  0.25000  0.00000  Biso   1.000  Cu
  N5       1.0000 0.29910  0.18988  0.93570  Biso   1.000  N 
  C13      1.0000 0.38460  0.19220  0.89920  Biso   1.000  C 
  C14      1.0000 0.40600  0.14290  0.87500  Biso   1.000  C 
  H11      1.0000 0.46127  0.13287  0.85225  Biso   1.000  H 
  N6       1.0000 0.32790  0.11026  0.89120  Biso   1.000  N 
  C15      1.0000 0.27980  0.14044  0.94140  Biso   1.000  C 
  H12      1.0000 0.23740  0.12726  0.97628  Biso   1.000  H 
  C16      1.0000 0.32630  0.05384  0.88730  Biso   1.000  C 
  C17      1.0000 0.34900  0.02810  0.81950  Biso   1.000  C 
  H13      1.0000 0.36613  0.04583  0.76829  Biso   1.000  H 
  C18      1.0000 0.34900  0.97190  0.81950  Biso   1.000  C 
  H14      1.0000 0.36613  0.95417  0.76829  Biso   1.000  H 
  C19      1.0000 0.32630  0.94616  0.88730  Biso   1.000  C 
  C20      1.0000 0.24340  0.97280  0.90530  Biso   1.000  C 
  H15      1.0000 0.18768  0.95454  0.91741  Biso   1.000  H 
  C21      1.0000 0.24340  0.02720  0.90530  Biso   1.000  C 
  H16      1.0000 0.18768  0.04546  0.91741  Biso   1.000  H 
  N7       1.0000 0.32790  0.88974  0.89120  Biso   1.000  N 
  C22      1.0000 0.40600  0.85710  0.87500  Biso   1.000  C 
  H17      1.0000 0.46127  0.86713  0.85225  Biso   1.000  H 
  C23      1.0000 0.38460  0.80780  0.89920  Biso   1.000  C 
  H18      1.0000 0.42104  0.77748  0.89253  Biso   1.000  H 
  N8       1.0000 0.29910  0.81012  0.93570  Biso   1.000  N 
  C24      1.0000 0.27980  0.85956  0.94140  Biso   1.000  C 
  H19      1.0000 0.23740  0.87274  0.97628  Biso   1.000  H 
  Cu3      1.0000 0.25000  0.75000  0.00000  Biso   1.000  Cu
  F7       1.0000 0.40255  0.69459  0.99012  Biso   1.000  F 
  Si2      1.0000 0.50000  0.64824  0.00000  Biso   1.000  Si
  F8       1.0000 0.40237  0.60131  0.98670  Biso   1.000  F 
  F9       1.0000 0.44500  0.64866  0.85793  Biso   1.000  F 
  F10      1.0000 0.59763  0.60131  0.01330  Biso   1.000  F 
  F11      1.0000 0.55500  0.64866  0.14207  Biso   1.000  F 
  F12      1.0000 0.59745  0.69459  0.00988  Biso   1.000  F 
  Cu4      1.0000 0.75000  0.75000  0.00000  Biso   1.000  Cu
  N9       1.0000 0.63780  0.77371  0.84220  Biso   1.000  N 
  C25      1.0000 0.53700  0.74995  0.77540  Biso   1.000  C 
  H20      1.0000 0.51263  0.71866  0.79322  Biso   1.000  H 
  N10      1.0000 0.47420  0.77668  0.67837  Biso   1.000  N 
  C26      1.0000 0.36010  0.76320  0.58800  Biso   1.000  C 
  C27      1.0000 0.28880  0.72950  0.60850  Biso   1.000  C 
  H21      1.0000 0.29064  0.72414  0.67835  Biso   1.000  H 
  C28      1.0000 0.20120  0.70100  0.48990  Biso   1.000  C 
  H22      1.0000 0.19474  0.66504  0.47806  Biso   1.000  H 
  C29      1.0000 0.13990  0.73680  0.41200  Biso   1.000  C 
  C30      1.0000 0.21120  0.77050  0.39150  Biso   1.000  C 
  H23      1.0000 0.20936  0.77586  0.32165  Biso   1.000  H 
  C31      1.0000 0.29880  0.79900  0.51010  Biso   1.000  C 
  H24      1.0000 0.30526  0.83496  0.52194  Biso   1.000  H 
  N11      1.0000 0.02580  0.72332  0.32163  Biso   1.000  N 
  C32      1.0000 0.96070  0.67868  0.31430  Biso   1.000  C 
  H25      1.0000 0.98200  0.65190  0.36770  Biso   1.000  H 
  C33      1.0000 0.86100  0.68209  0.21460  Biso   1.000  C 
  H26      1.0000 0.79968  0.65778  0.18789  Biso   1.000  H 
  N12      1.0000 0.86220  0.72629  0.15780  Biso   1.000  N 
  C34      1.0000 0.96300  0.75005  0.22460  Biso   1.000  C 
  H27      1.0000 0.98737  0.78134  0.20678  Biso   1.000  H 
  C35      1.0000 0.53930  0.82132  0.68570  Biso   1.000  C 
  H28      1.0000 0.51800  0.84810  0.63230  Biso   1.000  H 
  C36      1.0000 0.63900  0.81791  0.78540  Biso   1.000  C 
  H29      1.0000 0.70032  0.84222  0.81211  Biso   1.000  H 
  N13      1.0000 0.79910  0.68988  0.93570  Biso   1.000  N 
  C37      1.0000 0.77980  0.64044  0.94140  Biso   1.000  C 
  H30      1.0000 0.73740  0.62726  0.97628  Biso   1.000  H 
  N14      1.0000 0.82790  0.61026  0.89120  Biso   1.000  N 
  C38      1.0000 0.82630  0.55384  0.88730  Biso   1.000  C 
  C39      1.0000 0.84900  0.52810  0.81950  Biso   1.000  C 
  H31      1.0000 0.86613  0.54583  0.76829  Biso   1.000  H 
  C40      1.0000 0.84900  0.47190  0.81950  Biso   1.000  C 
  H32      1.0000 0.86613  0.45417  0.76829  Biso   1.000  H 
  C41      1.0000 0.82630  0.44616  0.88730  Biso   1.000  C 
  C42      1.0000 0.74340  0.47280  0.90530  Biso   1.000  C 
  H33      1.0000 0.68768  0.45454  0.91741  Biso   1.000  H 
  C43      1.0000 0.74340  0.52720  0.90530  Biso   1.000  C 
  H34      1.0000 0.68768  0.54546  0.91741  Biso   1.000  H 
  N15      1.0000 0.82790  0.38974  0.89120  Biso   1.000  N 
  C44      1.0000 0.77980  0.35956  0.94140  Biso   1.000  C 
  H35      1.0000 0.73740  0.37274  0.97628  Biso   1.000  H 
  N16      1.0000 0.79910  0.31012  0.93570  Biso   1.000  N 
  C45      1.0000 0.88460  0.30780  0.89920  Biso   1.000  C 
  H36      1.0000 0.92104  0.27748  0.89253  Biso   1.000  H 
  C46      1.0000 0.90600  0.35710  0.87500  Biso   1.000  C 
  H37      1.0000 0.96127  0.36713  0.85225  Biso   1.000  H 
  C47      1.0000 0.90600  0.64290  0.87500  Biso   1.000  C 
  H38      1.0000 0.96127  0.63287  0.85225  Biso   1.000  H 
  C48      1.0000 0.88460  0.69220  0.89920  Biso   1.000  C 
  H39      1.0000 0.92104  0.72252  0.89253  Biso   1.000  H 
  F13      1.0000 0.90255  0.80541  0.99012  Biso   1.000  F 
  Si3      1.0000 0.00000  0.85176  0.00000  Biso   1.000  Si
  F14      1.0000 0.94500  0.85134  0.85793  Biso   1.000  F 
  F15      1.0000 0.90237  0.89869  0.98670  Biso   1.000  F 
  F16      1.0000 0.09763  0.89869  0.01330  Biso   1.000  F 
  F17      1.0000 0.05500  0.85134  0.14207  Biso   1.000  F 
  F18      1.0000 0.09745  0.80541  0.00988  Biso   1.000  F 
  N17      1.0000 0.70090  0.81012  0.06430  Biso   1.000  N 
  C49      1.0000 0.61540  0.80780  0.10080  Biso   1.000  C 
  H40      1.0000 0.57896  0.77748  0.10747  Biso   1.000  H 
  C50      1.0000 0.59400  0.85710  0.12500  Biso   1.000  C 
  H41      1.0000 0.53873  0.86713  0.14775  Biso   1.000  H 
  N18      1.0000 0.67210  0.88974  0.10880  Biso   1.000  N 
  C51      1.0000 0.72020  0.85956  0.05860  Biso   1.000  C 
  H42      1.0000 0.76260  0.87274  0.02372  Biso   1.000  H 
  C52      1.0000 0.67370  0.94616  0.11270  Biso   1.000  C 
  C53      1.0000 0.65100  0.97190  0.18050  Biso   1.000  C 
  H43      1.0000 0.63387  0.95417  0.23171  Biso   1.000  H 
  C54      1.0000 0.65100  0.02810  0.18050  Biso   1.000  C 
  H44      1.0000 0.63387  0.04583  0.23171  Biso   1.000  H 
  C55      1.0000 0.67370  0.05384  0.11270  Biso   1.000  C 
  C56      1.0000 0.75660  0.02720  0.09470  Biso   1.000  C 
  H45      1.0000 0.81232  0.04546  0.08259  Biso   1.000  H 
  C57      1.0000 0.75660  0.97280  0.09470  Biso   1.000  C 
  H46      1.0000 0.81232  0.95454  0.08259  Biso   1.000  H 
  N19      1.0000 0.67210  0.11026  0.10880  Biso   1.000  N 
  C58      1.0000 0.72020  0.14044  0.05860  Biso   1.000  C 
  H47      1.0000 0.76260  0.12726  0.02372  Biso   1.000  H 
  N20      1.0000 0.70090  0.18988  0.06430  Biso   1.000  N 
  C59      1.0000 0.61540  0.19220  0.10080  Biso   1.000  C 
  C60      1.0000 0.59400  0.14290  0.12500  Biso   1.000  C 
  H48      1.0000 0.53873  0.13287  0.14775  Biso   1.000  H 
  H49      1.0000 0.57896  0.22252  0.10747  Biso   1.000  H 
  N21      1.0000 0.13780  0.72629  0.84220  Biso   1.000  N 
  C61      1.0000 0.13900  0.68209  0.78540  Biso   1.000  C 
  C62      1.0000 0.03930  0.67868  0.68570  Biso   1.000  C 
  H50      1.0000 0.01800  0.65190  0.63230  Biso   1.000  H 
  N22      1.0000 0.97420  0.72332  0.67837  Biso   1.000  N 
  C63      1.0000 0.86010  0.73680  0.58800  Biso   1.000  C 
  C64      1.0000 0.79880  0.70100  0.51010  Biso   1.000  C 
  H51      1.0000 0.80526  0.66504  0.52194  Biso   1.000  H 
  C65      1.0000 0.71120  0.72950  0.39150  Biso   1.000  C 
  H52      1.0000 0.70936  0.72414  0.32165  Biso   1.000  H 
  C66      1.0000 0.63990  0.76320  0.41200  Biso   1.000  C 
  C67      1.0000 0.70120  0.79900  0.48990  Biso   1.000  C 
  H53      1.0000 0.69474  0.83496  0.47806  Biso   1.000  H 
  C68      1.0000 0.78880  0.77050  0.60850  Biso   1.000  C 
  H54      1.0000 0.79064  0.77586  0.67835  Biso   1.000  H 
  N23      1.0000 0.52580  0.77668  0.32163  Biso   1.000  N 
  C69      1.0000 0.46300  0.74995  0.22460  Biso   1.000  C 
  H55      1.0000 0.48737  0.71866  0.20678  Biso   1.000  H 
  N24      1.0000 0.36220  0.77371  0.15780  Biso   1.000  N 
  C70      1.0000 0.36100  0.81791  0.21460  Biso   1.000  C 
  H56      1.0000 0.29968  0.84222  0.18789  Biso   1.000  H 
  C71      1.0000 0.46070  0.82132  0.31430  Biso   1.000  C 
  H57      1.0000 0.48200  0.84810  0.36770  Biso   1.000  H 
  C72      1.0000 0.03700  0.75005  0.77540  Biso   1.000  C 
  H58      1.0000 0.01263  0.78134  0.79322  Biso   1.000  H 
  H59      1.0000 0.20032  0.65778  0.81211  Biso   1.000  H 
  N25      1.0000 0.20090  0.68988  0.06430  Biso   1.000  N 
  C73      1.0000 0.22020  0.64044  0.05860  Biso   1.000  C 
  H60      1.0000 0.26260  0.62726  0.02372  Biso   1.000  H 
  N26      1.0000 0.17210  0.61026  0.10880  Biso   1.000  N 
  C74      1.0000 0.09400  0.64290  0.12500  Biso   1.000  C 
  H61      1.0000 0.03873  0.63287  0.14775  Biso   1.000  H 
  C75      1.0000 0.11540  0.69220  0.10080  Biso   1.000  C 
  H62      1.0000 0.07896  0.72252  0.10747  Biso   1.000  H 
  C76      1.0000 0.17370  0.55384  0.11270  Biso   1.000  C 
  C77      1.0000 0.25660  0.52720  0.09470  Biso   1.000  C 
  H63      1.0000 0.31232  0.54546  0.08259  Biso   1.000  H 
  C78      1.0000 0.25660  0.47280  0.09470  Biso   1.000  C 
  H64      1.0000 0.31232  0.45454  0.08259  Biso   1.000  H 
  C79      1.0000 0.17370  0.44616  0.11270  Biso   1.000  C 
  C80      1.0000 0.15100  0.47190  0.18050  Biso   1.000  C 
  H65      1.0000 0.13387  0.45417  0.23171  Biso   1.000  H 
  C81      1.0000 0.15100  0.52810  0.18050  Biso   1.000  C 
  H66      1.0000 0.13387  0.54583  0.23171  Biso   1.000  H 
  N27      1.0000 0.17210  0.38974  0.10880  Biso   1.000  N 
  C82      1.0000 0.09400  0.35710  0.12500  Biso   1.000  C 
  H67      1.0000 0.03873  0.36713  0.14775  Biso   1.000  H 
  C83      1.0000 0.11540  0.30780  0.10080  Biso   1.000  C 
  H68      1.0000 0.07896  0.27748  0.10747  Biso   1.000  H 
  N28      1.0000 0.20090  0.31012  0.06430  Biso   1.000  N 
  C84      1.0000 0.22020  0.35956  0.05860  Biso   1.000  C 
  H69      1.0000 0.26260  0.37274  0.02372  Biso   1.000  H 
  H70      1.0000 0.42104  0.22252  0.89253  Biso   1.000  H 
  N29      1.0000 0.13780  0.27371  0.84220  Biso   1.000  N 
  C85      1.0000 0.03700  0.24995  0.77540  Biso   1.000  C 
  H71      1.0000 0.01263  0.21866  0.79322  Biso   1.000  H 
  N30      1.0000 0.97420  0.27668  0.67837  Biso   1.000  N 
  C86      1.0000 0.86010  0.26320  0.58800  Biso   1.000  C 
  C87      1.0000 0.78880  0.22950  0.60850  Biso   1.000  C 
  H72      1.0000 0.79064  0.22414  0.67835  Biso   1.000  H 
  C88      1.0000 0.70120  0.20100  0.48990  Biso   1.000  C 
  H73      1.0000 0.69474  0.16504  0.47806  Biso   1.000  H 
  C89      1.0000 0.63990  0.23680  0.41200  Biso   1.000  C 
  C90      1.0000 0.71120  0.27050  0.39150  Biso   1.000  C 
  H74      1.0000 0.70936  0.27586  0.32165  Biso   1.000  H 
  C91      1.0000 0.79880  0.29900  0.51010  Biso   1.000  C 
  H75      1.0000 0.80526  0.33496  0.52194  Biso   1.000  H 
  N31      1.0000 0.52580  0.22332  0.32163  Biso   1.000  N 
  C92      1.0000 0.46070  0.17868  0.31430  Biso   1.000  C 
  H76      1.0000 0.48200  0.15190  0.36770  Biso   1.000  H 
  C93      1.0000 0.36100  0.18209  0.21460  Biso   1.000  C 
  H77      1.0000 0.29968  0.15778  0.18789  Biso   1.000  H 
  N32      1.0000 0.36220  0.22629  0.15780  Biso   1.000  N 
  C94      1.0000 0.46300  0.25005  0.22460  Biso   1.000  C 
  H78      1.0000 0.48737  0.28134  0.20678  Biso   1.000  H 
  C95      1.0000 0.03930  0.32132  0.68570  Biso   1.000  C 
  H79      1.0000 0.01800  0.34810  0.63230  Biso   1.000  H 
  C96      1.0000 0.13900  0.31791  0.78540  Biso   1.000  C 
  H80      1.0000 0.20032  0.34222  0.81211  Biso   1.000  H 
  F19      1.0000 0.40255  0.30541  0.99012  Biso   1.000  F 
  Si4      1.0000 0.50000  0.35176  0.00000  Biso   1.000  Si
  F20      1.0000 0.44500  0.35134  0.85793  Biso   1.000  F 
  F21      1.0000 0.40237  0.39869  0.98670  Biso   1.000  F 
  F22      1.0000 0.59763  0.39869  0.01330  Biso   1.000  F 
  F23      1.0000 0.55500  0.35134  0.14207  Biso   1.000  F 
  F24      1.0000 0.59745  0.30541  0.00988  Biso   1.000  F 
