data_image0
_cell_length_a       14.1639
_cell_length_b       25.2402
_cell_length_c       15.9077
_cell_angle_alpha    90
_cell_angle_beta     111.043
_cell_angle_gamma    90

_symmetry_space_group_name_H-M    "P 1"
_symmetry_int_tables_number       1

loop_
  _symmetry_equiv_pos_as_xyz
  'x, y, z'

loop_
  _atom_site_label
  _atom_site_occupancy
  _atom_site_fract_x
  _atom_site_fract_y
  _atom_site_fract_z
  _atom_site_thermal_displace_type
  _atom_site_B_iso_or_equiv
  _atom_site_type_symbol
  Zn1      1.0000 0.83941  0.72429  0.38708  Biso   1.000  Zn
  Zn2      1.0000 0.16059  0.22429  0.11292  Biso   1.000  Zn
  Zn3      1.0000 0.16059  0.27571  0.61292  Biso   1.000  Zn
  Zn4      1.0000 0.83941  0.77571  0.88708  Biso   1.000  Zn
  Zn5      1.0000 0.32171  0.23712  0.34057  Biso   1.000  Zn
  Zn6      1.0000 0.67829  0.73712  0.15943  Biso   1.000  Zn
  Zn7      1.0000 0.67829  0.76288  0.65943  Biso   1.000  Zn
  Zn8      1.0000 0.32171  0.26288  0.84057  Biso   1.000  Zn
  N1       1.0000 0.41530  0.21756  0.46800  Biso   1.000  N 
  N2       1.0000 0.58470  0.71756  0.03200  Biso   1.000  N 
  N3       1.0000 0.58470  0.78244  0.53200  Biso   1.000  N 
  N4       1.0000 0.41530  0.28244  0.96800  Biso   1.000  N 
  N5       1.0000 0.06120  0.19897  0.99060  Biso   1.000  N 
  N6       1.0000 0.93880  0.69897  0.50940  Biso   1.000  N 
  N7       1.0000 0.93880  0.80103  0.00940  Biso   1.000  N 
  N8       1.0000 0.06120  0.30103  0.49060  Biso   1.000  N 
  O1       1.0000 0.70970  0.69164  0.37670  Biso   1.000  O 
  O2       1.0000 0.29030  0.19164  0.12330  Biso   1.000  O 
  O3       1.0000 0.29030  0.30836  0.62330  Biso   1.000  O 
  O4       1.0000 0.70970  0.80836  0.87670  Biso   1.000  O 
  O5       1.0000 0.11350  0.18033  0.19150  Biso   1.000  O 
  O6       1.0000 0.88650  0.68033  0.30850  Biso   1.000  O 
  O7       1.0000 0.88650  0.81967  0.80850  Biso   1.000  O 
  O8       1.0000 0.11350  0.31967  0.69150  Biso   1.000  O 
  O9       1.0000 0.85260  0.04623  0.36130  Biso   1.000  O 
  O10      1.0000 0.14740  0.54623  0.13870  Biso   1.000  O 
  O11      1.0000 0.14740  0.95377  0.63870  Biso   1.000  O 
  O12      1.0000 0.85260  0.45377  0.86130  Biso   1.000  O 
  O13      1.0000 0.20030  0.19640  0.33590  Biso   1.000  O 
  O14      1.0000 0.79970  0.69640  0.16410  Biso   1.000  O 
  O15      1.0000 0.79970  0.80360  0.66410  Biso   1.000  O 
  O16      1.0000 0.20030  0.30360  0.83590  Biso   1.000  O 
  O17      1.0000 0.33480  0.55901  0.37520  Biso   1.000  O 
  O18      1.0000 0.66520  0.05901  0.12480  Biso   1.000  O 
  O19      1.0000 0.66520  0.44099  0.62480  Biso   1.000  O 
  O20      1.0000 0.33480  0.94099  0.87520  Biso   1.000  O 
  O21      1.0000 0.80680  0.79872  0.38820  Biso   1.000  O 
  O22      1.0000 0.19320  0.29872  0.11180  Biso   1.000  O 
  O23      1.0000 0.19320  0.20128  0.61180  Biso   1.000  O 
  O24      1.0000 0.80680  0.70128  0.88820  Biso   1.000  O 
  O25      1.0000 0.27840  0.31023  0.34330  Biso   1.000  O 
  O26      1.0000 0.72160  0.81023  0.15670  Biso   1.000  O 
  O27      1.0000 0.72160  0.68977  0.65670  Biso   1.000  O 
  O28      1.0000 0.27840  0.18977  0.84330  Biso   1.000  O 
  O29      1.0000 0.94120  0.79880  0.35240  Biso   1.000  O 
  O30      1.0000 0.05880  0.29880  0.14760  Biso   1.000  O 
  O31      1.0000 0.05880  0.20120  0.64760  Biso   1.000  O 
  O32      1.0000 0.94120  0.70120  0.85240  Biso   1.000  O 
  O33      1.0000 0.42630  0.31518  0.33010  Biso   1.000  O 
  O34      1.0000 0.57370  0.81518  0.16990  Biso   1.000  O 
  O35      1.0000 0.57370  0.68482  0.66990  Biso   1.000  O 
  O36      1.0000 0.42630  0.18482  0.83010  Biso   1.000  O 
  O37      1.0000 0.61480  0.69804  0.23100  Biso   1.000  O 
  O38      1.0000 0.38520  0.19804  0.26900  Biso   1.000  O 
  O39      1.0000 0.38520  0.30196  0.76900  Biso   1.000  O 
  O40      1.0000 0.61480  0.80196  0.73100  Biso   1.000  O 
  C1       1.0000 0.34920  0.33600  0.33640  Biso   1.000  C 
  C2       1.0000 0.65080  0.83600  0.16360  Biso   1.000  C 
  C3       1.0000 0.65080  0.66400  0.66360  Biso   1.000  C 
  C4       1.0000 0.34920  0.16400  0.83640  Biso   1.000  C 
  C5       1.0000 0.34640  0.39560  0.34520  Biso   1.000  C 
  C6       1.0000 0.65360  0.89560  0.15480  Biso   1.000  C 
  C7       1.0000 0.65360  0.60440  0.65480  Biso   1.000  C 
  C8       1.0000 0.34640  0.10440  0.84520  Biso   1.000  C 
  C9       1.0000 0.42080  0.42680  0.33440  Biso   1.000  C 
  C10      1.0000 0.57920  0.92680  0.16560  Biso   1.000  C 
  C11      1.0000 0.57920  0.57320  0.66560  Biso   1.000  C 
  C12      1.0000 0.42080  0.07320  0.83440  Biso   1.000  C 
  H1       1.0000 0.47350  0.41120  0.32150  Biso   1.000  H 
  H2       1.0000 0.52650  0.91120  0.17850  Biso   1.000  H 
  H3       1.0000 0.52650  0.58880  0.67850  Biso   1.000  H 
  H4       1.0000 0.47350  0.08880  0.82150  Biso   1.000  H 
  C13      1.0000 0.41810  0.48160  0.34280  Biso   1.000  C 
  C14      1.0000 0.58190  0.98160  0.15720  Biso   1.000  C 
  C15      1.0000 0.58190  0.51840  0.65720  Biso   1.000  C 
  C16      1.0000 0.41810  0.01840  0.84280  Biso   1.000  C 
  H5       1.0000 0.46760  0.50250  0.33350  Biso   1.000  H 
  H6       1.0000 0.53240  0.00250  0.16650  Biso   1.000  H 
  H7       1.0000 0.53240  0.49750  0.66650  Biso   1.000  H 
  H8       1.0000 0.46760  0.99750  0.83350  Biso   1.000  H 
  C17      1.0000 0.34300  0.50450  0.36440  Biso   1.000  C 
  C18      1.0000 0.65700  0.00450  0.13560  Biso   1.000  C 
  C19      1.0000 0.65700  0.49550  0.63560  Biso   1.000  C 
  C20      1.0000 0.34300  0.99550  0.86440  Biso   1.000  C 
  C21      1.0000 0.26850  0.47410  0.37540  Biso   1.000  C 
  C22      1.0000 0.73150  0.97410  0.12460  Biso   1.000  C 
  C23      1.0000 0.73150  0.52590  0.62460  Biso   1.000  C 
  C24      1.0000 0.26850  0.02590  0.87540  Biso   1.000  C 
  H9       1.0000 0.21650  0.49000  0.38900  Biso   1.000  H 
  H10      1.0000 0.78350  0.99000  0.11100  Biso   1.000  H 
  H11      1.0000 0.78350  0.51000  0.61100  Biso   1.000  H 
  H12      1.0000 0.21650  0.01000  0.88900  Biso   1.000  H 
  C25      1.0000 0.27030  0.41990  0.36640  Biso   1.000  C 
  C26      1.0000 0.72970  0.91990  0.13360  Biso   1.000  C 
  C27      1.0000 0.72970  0.58010  0.63360  Biso   1.000  C 
  C28      1.0000 0.27030  0.08010  0.86640  Biso   1.000  C 
  H13      1.0000 0.21980  0.39940  0.37470  Biso   1.000  H 
  H14      1.0000 0.78020  0.89940  0.12530  Biso   1.000  H 
  H15      1.0000 0.78020  0.60060  0.62530  Biso   1.000  H 
  H16      1.0000 0.21980  0.10060  0.87470  Biso   1.000  H 
  C29      1.0000 0.48880  0.60680  0.42790  Biso   1.000  C 
  C30      1.0000 0.51120  0.10680  0.07210  Biso   1.000  C 
  C31      1.0000 0.51120  0.39320  0.57210  Biso   1.000  C 
  C32      1.0000 0.48880  0.89320  0.92790  Biso   1.000  C 
  H17      1.0000 0.49760  0.59680  0.48650  Biso   1.000  H 
  H18      1.0000 0.50240  0.09680  0.01350  Biso   1.000  H 
  H19      1.0000 0.50240  0.40320  0.51350  Biso   1.000  H 
  H20      1.0000 0.49760  0.90320  0.98650  Biso   1.000  H 
  C33      1.0000 0.40580  0.59120  0.35910  Biso   1.000  C 
  C34      1.0000 0.59420  0.09120  0.14090  Biso   1.000  C 
  C35      1.0000 0.59420  0.40880  0.64090  Biso   1.000  C 
  C36      1.0000 0.40580  0.90880  0.85910  Biso   1.000  C 
  C37      1.0000 0.38980  0.60760  0.27260  Biso   1.000  C 
  C38      1.0000 0.61020  0.10760  0.22740  Biso   1.000  C 
  C39      1.0000 0.61020  0.39240  0.72740  Biso   1.000  C 
  C40      1.0000 0.38980  0.89240  0.77260  Biso   1.000  C 
  H21      1.0000 0.33140  0.59770  0.22540  Biso   1.000  H 
  H22      1.0000 0.66860  0.09770  0.27460  Biso   1.000  H 
  H23      1.0000 0.66860  0.40230  0.77460  Biso   1.000  H 
  H24      1.0000 0.33140  0.90230  0.72540  Biso   1.000  H 
  C41      1.0000 0.90000  0.09340  0.25400  Biso   1.000  C 
  C42      1.0000 0.10000  0.59340  0.24600  Biso   1.000  C 
  C43      1.0000 0.10000  0.90660  0.74600  Biso   1.000  C 
  C44      1.0000 0.90000  0.40660  0.75400  Biso   1.000  C 
  H25      1.0000 0.83940  0.08330  0.20960  Biso   1.000  H 
  H26      1.0000 0.16060  0.58330  0.29040  Biso   1.000  H 
  H27      1.0000 0.16060  0.91670  0.79040  Biso   1.000  H 
  H28      1.0000 0.83940  0.41670  0.70960  Biso   1.000  H 
  C45      1.0000 0.92230  0.07710  0.33980  Biso   1.000  C 
  C46      1.0000 0.07770  0.57710  0.16020  Biso   1.000  C 
  C47      1.0000 0.07770  0.92290  0.66020  Biso   1.000  C 
  C48      1.0000 0.92230  0.42290  0.83980  Biso   1.000  C 
  C49      1.0000 0.00820  0.09360  0.40410  Biso   1.000  C 
  C50      1.0000 0.99180  0.59360  0.09590  Biso   1.000  C 
  C51      1.0000 0.99180  0.90640  0.59590  Biso   1.000  C 
  C52      1.0000 0.00820  0.40640  0.90410  Biso   1.000  C 
  H29      1.0000 0.02240  0.08300  0.46340  Biso   1.000  H 
  H30      1.0000 0.97760  0.58300  0.03660  Biso   1.000  H 
  H31      1.0000 0.97760  0.91700  0.53660  Biso   1.000  H 
  H32      1.0000 0.02240  0.41700  0.96340  Biso   1.000  H 
  C53      1.0000 0.86240  0.99210  0.36130  Biso   1.000  C 
  C54      1.0000 0.13760  0.49210  0.13870  Biso   1.000  C 
  C55      1.0000 0.13760  0.00790  0.63870  Biso   1.000  C 
  C56      1.0000 0.86240  0.50790  0.86130  Biso   1.000  C 
  C57      1.0000 0.78640  0.96390  0.37640  Biso   1.000  C 
  C58      1.0000 0.21360  0.46390  0.12360  Biso   1.000  C 
  C59      1.0000 0.21360  0.03610  0.62360  Biso   1.000  C 
  C60      1.0000 0.78640  0.53610  0.87640  Biso   1.000  C 
  H33      1.0000 0.73330  0.98150  0.38560  Biso   1.000  H 
  H34      1.0000 0.26670  0.48150  0.11440  Biso   1.000  H 
  H35      1.0000 0.26670  0.01850  0.61440  Biso   1.000  H 
  H36      1.0000 0.73330  0.51850  0.88560  Biso   1.000  H 
  C61      1.0000 0.79030  0.90960  0.37770  Biso   1.000  C 
  C62      1.0000 0.20970  0.40960  0.12230  Biso   1.000  C 
  C63      1.0000 0.20970  0.09040  0.62230  Biso   1.000  C 
  C64      1.0000 0.79030  0.59040  0.87770  Biso   1.000  C 
  H37      1.0000 0.73910  0.89080  0.38820  Biso   1.000  H 
  H38      1.0000 0.26090  0.39080  0.11180  Biso   1.000  H 
  H39      1.0000 0.26090  0.10920  0.61180  Biso   1.000  H 
  H40      1.0000 0.73910  0.60920  0.88820  Biso   1.000  H 
  C65      1.0000 0.86740  0.88200  0.36400  Biso   1.000  C 
  C66      1.0000 0.13260  0.38200  0.13600  Biso   1.000  C 
  C67      1.0000 0.13260  0.11800  0.63600  Biso   1.000  C 
  C68      1.0000 0.86740  0.61800  0.86400  Biso   1.000  C 
  C69      1.0000 0.94190  0.91060  0.34720  Biso   1.000  C 
  C70      1.0000 0.05810  0.41060  0.15280  Biso   1.000  C 
  C71      1.0000 0.05810  0.08940  0.65280  Biso   1.000  C 
  C72      1.0000 0.94190  0.58940  0.84720  Biso   1.000  C 
  H41      1.0000 0.99380  0.89300  0.33590  Biso   1.000  H 
  H42      1.0000 0.00620  0.39300  0.16410  Biso   1.000  H 
  H43      1.0000 0.00620  0.10700  0.66410  Biso   1.000  H 
  H44      1.0000 0.99380  0.60700  0.83590  Biso   1.000  H 
  C73      1.0000 0.93950  0.96550  0.34710  Biso   1.000  C 
  C74      1.0000 0.06050  0.46550  0.15290  Biso   1.000  C 
  C75      1.0000 0.06050  0.03450  0.65290  Biso   1.000  C 
  C76      1.0000 0.93950  0.53450  0.84710  Biso   1.000  C 
  H45      1.0000 0.99090  0.98440  0.33720  Biso   1.000  H 
  H46      1.0000 0.00910  0.48440  0.16280  Biso   1.000  H 
  H47      1.0000 0.00910  0.01560  0.66280  Biso   1.000  H 
  H48      1.0000 0.99090  0.51560  0.83720  Biso   1.000  H 
  C77      1.0000 0.87380  0.82250  0.36710  Biso   1.000  C 
  C78      1.0000 0.12620  0.32250  0.13290  Biso   1.000  C 
  C79      1.0000 0.12620  0.17750  0.63290  Biso   1.000  C 
  C80      1.0000 0.87380  0.67750  0.86710  Biso   1.000  C 
  C81      1.0000 0.12880  0.17550  0.27350  Biso   1.000  C 
  C82      1.0000 0.87120  0.67550  0.22650  Biso   1.000  C 
  C83      1.0000 0.87120  0.82450  0.72650  Biso   1.000  C 
  C84      1.0000 0.12880  0.32450  0.77350  Biso   1.000  C 
  C85      1.0000 0.05610  0.14155  0.29820  Biso   1.000  C 
  C86      1.0000 0.94390  0.64155  0.20180  Biso   1.000  C 
  C87      1.0000 0.94390  0.85845  0.70180  Biso   1.000  C 
  C88      1.0000 0.05610  0.35845  0.79820  Biso   1.000  C 
  C89      1.0000 0.07500  0.12550  0.38430  Biso   1.000  C 
  C90      1.0000 0.92500  0.62550  0.11570  Biso   1.000  C 
  C91      1.0000 0.92500  0.87450  0.61570  Biso   1.000  C 
  C92      1.0000 0.07500  0.37450  0.88430  Biso   1.000  C 
  H49      1.0000 0.13390  0.13640  0.43000  Biso   1.000  H 
  H50      1.0000 0.86610  0.63640  0.07000  Biso   1.000  H 
  H51      1.0000 0.86610  0.86360  0.57000  Biso   1.000  H 
  H52      1.0000 0.13390  0.36360  0.93000  Biso   1.000  H 
  C93      1.0000 0.96750  0.12490  0.23270  Biso   1.000  C 
  C94      1.0000 0.03250  0.62490  0.26730  Biso   1.000  C 
  C95      1.0000 0.03250  0.87510  0.76730  Biso   1.000  C 
  C96      1.0000 0.96750  0.37510  0.73270  Biso   1.000  C 
  H53      1.0000 0.95300  0.13510  0.17320  Biso   1.000  H 
  H54      1.0000 0.04700  0.63510  0.32680  Biso   1.000  H 
  H55      1.0000 0.04700  0.86490  0.82680  Biso   1.000  H 
  H56      1.0000 0.95300  0.36490  0.67320  Biso   1.000  H 
  C97      1.0000 0.63090  0.68412  0.31060  Biso   1.000  C 
  C98      1.0000 0.36910  0.18412  0.18940  Biso   1.000  C 
  C99      1.0000 0.36910  0.31588  0.68940  Biso   1.000  C 
  C100     1.0000 0.63090  0.81588  0.81060  Biso   1.000  C 
  C101     1.0000 0.54940  0.65360  0.32590  Biso   1.000  C 
  C102     1.0000 0.45060  0.15360  0.17410  Biso   1.000  C 
  C103     1.0000 0.45060  0.34640  0.67410  Biso   1.000  C 
  C104     1.0000 0.54940  0.84640  0.82590  Biso   1.000  C 
  C105     1.0000 0.56090  0.63740  0.41150  Biso   1.000  C 
  C106     1.0000 0.43910  0.13740  0.08850  Biso   1.000  C 
  C107     1.0000 0.43910  0.36260  0.58850  Biso   1.000  C 
  C108     1.0000 0.56090  0.86260  0.91150  Biso   1.000  C 
  H57      1.0000 0.61860  0.64740  0.45950  Biso   1.000  H 
  H58      1.0000 0.38140  0.14740  0.04050  Biso   1.000  H 
  H59      1.0000 0.38140  0.35260  0.54050  Biso   1.000  H 
  H60      1.0000 0.61860  0.85260  0.95950  Biso   1.000  H 
  C109     1.0000 0.46110  0.63900  0.25670  Biso   1.000  C 
  C110     1.0000 0.53890  0.13900  0.24330  Biso   1.000  C 
  C111     1.0000 0.53890  0.36100  0.74330  Biso   1.000  C 
  C112     1.0000 0.46110  0.86100  0.75670  Biso   1.000  C 
  H61      1.0000 0.44990  0.65060  0.19840  Biso   1.000  H 
  H62      1.0000 0.55010  0.15060  0.30160  Biso   1.000  H 
  H63      1.0000 0.55010  0.34940  0.80160  Biso   1.000  H 
  H64      1.0000 0.44990  0.84940  0.69840  Biso   1.000  H 
  C113     1.0000 0.99170  0.16210  0.98760  Biso   1.000  C 
  C114     1.0000 0.00830  0.66210  0.51240  Biso   1.000  C 
  C115     1.0000 0.00830  0.83790  0.01240  Biso   1.000  C 
  C116     1.0000 0.99170  0.33790  0.48760  Biso   1.000  C 
  H65      1.0000 0.00200  0.14240  0.03950  Biso   1.000  H 
  H66      1.0000 0.99800  0.64240  0.46050  Biso   1.000  H 
  H67      1.0000 0.99800  0.85760  0.96050  Biso   1.000  H 
  H68      1.0000 0.00200  0.35760  0.53950  Biso   1.000  H 
  C117     1.0000 0.90770  0.15150  0.91510  Biso   1.000  C 
  C118     1.0000 0.09230  0.65150  0.58490  Biso   1.000  C 
  C119     1.0000 0.09230  0.84850  0.08490  Biso   1.000  C 
  C120     1.0000 0.90770  0.34850  0.41510  Biso   1.000  C 
  H69      1.0000 0.86450  0.12420  0.91740  Biso   1.000  H 
  H70      1.0000 0.13550  0.62420  0.58260  Biso   1.000  H 
  H71      1.0000 0.13550  0.87580  0.08260  Biso   1.000  H 
  H72      1.0000 0.86450  0.37580  0.41740  Biso   1.000  H 
  C121     1.0000 0.88640  0.18130  0.83770  Biso   1.000  C 
  C122     1.0000 0.11360  0.68130  0.66230  Biso   1.000  C 
  C123     1.0000 0.11360  0.81870  0.16230  Biso   1.000  C 
  C124     1.0000 0.88640  0.31870  0.33770  Biso   1.000  C 
  C125     1.0000 0.96230  0.21490  0.83730  Biso   1.000  C 
  C126     1.0000 0.03770  0.71490  0.66270  Biso   1.000  C 
  C127     1.0000 0.03770  0.78510  0.16270  Biso   1.000  C 
  C128     1.0000 0.96230  0.28510  0.33730  Biso   1.000  C 
  H73      1.0000 0.95650  0.23330  0.78500  Biso   1.000  H 
  H74      1.0000 0.04350  0.73330  0.71500  Biso   1.000  H 
  H75      1.0000 0.04350  0.76670  0.21500  Biso   1.000  H 
  H76      1.0000 0.95650  0.26670  0.28500  Biso   1.000  H 
  C129     1.0000 0.04640  0.22170  0.91320  Biso   1.000  C 
  C130     1.0000 0.95360  0.72170  0.58680  Biso   1.000  C 
  C131     1.0000 0.95360  0.77830  0.08680  Biso   1.000  C 
  C132     1.0000 0.04640  0.27830  0.41320  Biso   1.000  C 
  H77      1.0000 0.09670  0.24420  0.90930  Biso   1.000  H 
  H78      1.0000 0.90330  0.74420  0.59070  Biso   1.000  H 
  H79      1.0000 0.90330  0.75580  0.09070  Biso   1.000  H 
  H80      1.0000 0.09670  0.25580  0.40930  Biso   1.000  H 
  C133     1.0000 0.38340  0.20670  0.53400  Biso   1.000  C 
  C134     1.0000 0.61660  0.70670  0.96600  Biso   1.000  C 
  C135     1.0000 0.61660  0.79330  0.46600  Biso   1.000  C 
  C136     1.0000 0.38340  0.29330  0.03400  Biso   1.000  C 
  H81      1.0000 0.31420  0.20730  0.52230  Biso   1.000  H 
  H82      1.0000 0.68580  0.70730  0.97770  Biso   1.000  H 
  H83      1.0000 0.68580  0.79270  0.47770  Biso   1.000  H 
  H84      1.0000 0.31420  0.29270  0.02230  Biso   1.000  H 
  C137     1.0000 0.44680  0.19460  0.61850  Biso   1.000  C 
  C138     1.0000 0.55320  0.69460  0.88150  Biso   1.000  C 
  C139     1.0000 0.55320  0.80540  0.38150  Biso   1.000  C 
  C140     1.0000 0.44680  0.30540  0.11850  Biso   1.000  C 
  H85      1.0000 0.41950  0.18780  0.66260  Biso   1.000  H 
  H86      1.0000 0.58050  0.68780  0.83740  Biso   1.000  H 
  H87      1.0000 0.58050  0.81220  0.33740  Biso   1.000  H 
  H88      1.0000 0.41950  0.31220  0.16260  Biso   1.000  H 
  C141     1.0000 0.54900  0.19210  0.64110  Biso   1.000  C 
  C142     1.0000 0.45100  0.69210  0.85890  Biso   1.000  C 
  C143     1.0000 0.45100  0.80790  0.35890  Biso   1.000  C 
  C144     1.0000 0.54900  0.30790  0.14110  Biso   1.000  C 
  C145     1.0000 0.58200  0.20540  0.57350  Biso   1.000  C 
  C146     1.0000 0.41800  0.70540  0.92650  Biso   1.000  C 
  C147     1.0000 0.41800  0.79460  0.42650  Biso   1.000  C 
  C148     1.0000 0.58200  0.29460  0.07350  Biso   1.000  C 
  H89      1.0000 0.65110  0.20650  0.58510  Biso   1.000  H 
  H90      1.0000 0.34890  0.70650  0.91490  Biso   1.000  H 
  H91      1.0000 0.34890  0.79350  0.41490  Biso   1.000  H 
  H92      1.0000 0.65110  0.29350  0.08510  Biso   1.000  H 
  C149     1.0000 0.51510  0.21750  0.48780  Biso   1.000  C 
  C150     1.0000 0.48490  0.71750  0.01220  Biso   1.000  C 
  C151     1.0000 0.48490  0.78250  0.51220  Biso   1.000  C 
  C152     1.0000 0.51510  0.28250  0.98780  Biso   1.000  C 
  H93      1.0000 0.54050  0.22570  0.44300  Biso   1.000  H 
  H94      1.0000 0.45950  0.72570  0.05700  Biso   1.000  H 
  H95      1.0000 0.45950  0.77430  0.55700  Biso   1.000  H 
  H96      1.0000 0.54050  0.27430  0.94300  Biso   1.000  H 
  C153     1.0000 0.61800  0.17930  0.73560  Biso   1.000  C 
  C154     1.0000 0.38200  0.67930  0.76440  Biso   1.000  C 
  C155     1.0000 0.38200  0.82070  0.26440  Biso   1.000  C 
  C156     1.0000 0.61800  0.32070  0.23560  Biso   1.000  C 
  H97      1.0000 0.57960  0.17050  0.77420  Biso   1.000  H 
  H98      1.0000 0.42040  0.67050  0.72580  Biso   1.000  H 
  H99      1.0000 0.42040  0.82950  0.22580  Biso   1.000  H 
  H100     1.0000 0.57960  0.32950  0.27420  Biso   1.000  H 
  C157     1.0000 0.70640  0.13770  0.74700  Biso   1.000  C 
  C158     1.0000 0.29360  0.63770  0.75300  Biso   1.000  C 
  C159     1.0000 0.29360  0.86230  0.25300  Biso   1.000  C 
  C160     1.0000 0.70640  0.36230  0.24700  Biso   1.000  C 
  H101     1.0000 0.72100  0.11970  0.80490  Biso   1.000  H 
  H102     1.0000 0.27900  0.61970  0.69510  Biso   1.000  H 
  H103     1.0000 0.27900  0.88030  0.19510  Biso   1.000  H 
  H104     1.0000 0.72100  0.38030  0.30490  Biso   1.000  H 
  C161     1.0000 0.78350  0.18350  0.76180  Biso   1.000  C 
  C162     1.0000 0.21650  0.68350  0.73820  Biso   1.000  C 
  C163     1.0000 0.21650  0.81650  0.23820  Biso   1.000  C 
  C164     1.0000 0.78350  0.31650  0.26180  Biso   1.000  C 
  H105     1.0000 0.79110  0.19320  0.70490  Biso   1.000  H 
  H106     1.0000 0.20890  0.69320  0.79510  Biso   1.000  H 
  H107     1.0000 0.20890  0.80680  0.29510  Biso   1.000  H 
  H108     1.0000 0.79110  0.30680  0.20490  Biso   1.000  H 
  C165     1.0000 0.70030  0.22090  0.78000  Biso   1.000  C 
  C166     1.0000 0.29970  0.72090  0.72000  Biso   1.000  C 
  C167     1.0000 0.29970  0.77910  0.22000  Biso   1.000  C 
  C168     1.0000 0.70030  0.27910  0.28000  Biso   1.000  C 
  H109     1.0000 0.68900  0.25390  0.74540  Biso   1.000  H 
  H110     1.0000 0.31100  0.75390  0.75460  Biso   1.000  H 
  H111     1.0000 0.31100  0.74610  0.25460  Biso   1.000  H 
  H112     1.0000 0.68900  0.24610  0.24540  Biso   1.000  H 
  C169     1.0000 0.72500  0.23070  0.87940  Biso   1.000  C 
  C170     1.0000 0.27500  0.73070  0.62060  Biso   1.000  C 
  C171     1.0000 0.27500  0.76930  0.12060  Biso   1.000  C 
  C172     1.0000 0.72500  0.26930  0.37940  Biso   1.000  C 
  C173     1.0000 0.69980  0.19500  0.93680  Biso   1.000  C 
  C174     1.0000 0.30020  0.69500  0.56320  Biso   1.000  C 
  C175     1.0000 0.30020  0.80500  0.06320  Biso   1.000  C 
  C176     1.0000 0.69980  0.30500  0.43680  Biso   1.000  C 
  H113     1.0000 0.65250  0.16850  0.91100  Biso   1.000  H 
  H114     1.0000 0.34750  0.66850  0.58900  Biso   1.000  H 
  H115     1.0000 0.34750  0.83150  0.08900  Biso   1.000  H 
  H116     1.0000 0.65250  0.33150  0.41100  Biso   1.000  H 
  C177     1.0000 0.74260  0.19780  0.02960  Biso   1.000  C 
  C178     1.0000 0.25740  0.69780  0.47040  Biso   1.000  C 
  C179     1.0000 0.25740  0.80220  0.97040  Biso   1.000  C 
  C180     1.0000 0.74260  0.30220  0.52960  Biso   1.000  C 
  H117     1.0000 0.72300  0.17500  0.06620  Biso   1.000  H 
  H118     1.0000 0.27700  0.67500  0.43380  Biso   1.000  H 
  H119     1.0000 0.27700  0.82500  0.93380  Biso   1.000  H 
  H120     1.0000 0.72300  0.32500  0.56620  Biso   1.000  H 
  C181     1.0000 0.81780  0.23710  0.06670  Biso   1.000  C 
  C182     1.0000 0.18220  0.73710  0.43330  Biso   1.000  C 
  C183     1.0000 0.18220  0.76290  0.93330  Biso   1.000  C 
  C184     1.0000 0.81780  0.26290  0.56670  Biso   1.000  C 
  H121     1.0000 0.85860  0.23530  0.12720  Biso   1.000  H 
  H122     1.0000 0.14140  0.73530  0.37280  Biso   1.000  H 
  H123     1.0000 0.14140  0.76470  0.87280  Biso   1.000  H 
  H124     1.0000 0.85860  0.26470  0.62720  Biso   1.000  H 
  C185     1.0000 0.83080  0.27600  0.01640  Biso   1.000  C 
  C186     1.0000 0.16920  0.77600  0.48360  Biso   1.000  C 
  C187     1.0000 0.16920  0.72400  0.98360  Biso   1.000  C 
  C188     1.0000 0.83080  0.22400  0.51640  Biso   1.000  C 
  H125     1.0000 0.86570  0.30640  0.04360  Biso   1.000  H 
  H126     1.0000 0.13430  0.80640  0.45640  Biso   1.000  H 
  H127     1.0000 0.13430  0.69360  0.95640  Biso   1.000  H 
  H128     1.0000 0.86570  0.19360  0.54360  Biso   1.000  H 
  C189     1.0000 0.79120  0.27180  0.91940  Biso   1.000  C 
  C190     1.0000 0.20880  0.77180  0.58060  Biso   1.000  C 
  C191     1.0000 0.20880  0.72820  0.08060  Biso   1.000  C 
  C192     1.0000 0.79120  0.22820  0.41940  Biso   1.000  C 
  H129     1.0000 0.80980  0.29620  0.88430  Biso   1.000  H 
  H130     1.0000 0.19020  0.79620  0.61570  Biso   1.000  H 
  H131     1.0000 0.19020  0.70380  0.11570  Biso   1.000  H 
  H132     1.0000 0.80980  0.20380  0.38430  Biso   1.000  H 
  C193     1.0000 0.69530  0.09600  0.67670  Biso   1.000  C 
  C194     1.0000 0.30470  0.59600  0.82330  Biso   1.000  C 
  C195     1.0000 0.30470  0.90400  0.32330  Biso   1.000  C 
  C196     1.0000 0.69530  0.40400  0.17670  Biso   1.000  C 
  C197     1.0000 0.76130  0.09130  0.63130  Biso   1.000  C 
  C198     1.0000 0.23870  0.59130  0.86870  Biso   1.000  C 
  C199     1.0000 0.23870  0.90870  0.36870  Biso   1.000  C 
  C200     1.0000 0.76130  0.40870  0.13130  Biso   1.000  C 
  H133     1.0000 0.81260  0.11620  0.64090  Biso   1.000  H 
  H134     1.0000 0.18740  0.61620  0.85910  Biso   1.000  H 
  H135     1.0000 0.18740  0.88380  0.35910  Biso   1.000  H 
  H136     1.0000 0.81260  0.38380  0.14090  Biso   1.000  H 
  C201     1.0000 0.75220  0.04920  0.57030  Biso   1.000  C 
  C202     1.0000 0.24780  0.54920  0.92970  Biso   1.000  C 
  C203     1.0000 0.24780  0.95080  0.42970  Biso   1.000  C 
  C204     1.0000 0.75220  0.45080  0.07030  Biso   1.000  C 
  H137     1.0000 0.80070  0.04450  0.54410  Biso   1.000  H 
  H138     1.0000 0.19930  0.54450  0.95590  Biso   1.000  H 
  H139     1.0000 0.19930  0.95550  0.45590  Biso   1.000  H 
  H140     1.0000 0.80070  0.45550  0.04410  Biso   1.000  H 
  C205     1.0000 0.67360  0.01650  0.55050  Biso   1.000  C 
  C206     1.0000 0.32640  0.51650  0.94950  Biso   1.000  C 
  C207     1.0000 0.32640  0.98350  0.44950  Biso   1.000  C 
  C208     1.0000 0.67360  0.48350  0.05050  Biso   1.000  C 
  H141     1.0000 0.66470  0.99040  0.50700  Biso   1.000  H 
  H142     1.0000 0.33530  0.49040  0.99300  Biso   1.000  H 
  H143     1.0000 0.33530  0.00960  0.49300  Biso   1.000  H 
  H144     1.0000 0.66470  0.50960  0.00700  Biso   1.000  H 
  C209     1.0000 0.60320  0.02070  0.59510  Biso   1.000  C 
  C210     1.0000 0.39680  0.52070  0.90490  Biso   1.000  C 
  C211     1.0000 0.39680  0.97930  0.40490  Biso   1.000  C 
  C212     1.0000 0.60320  0.47930  0.09510  Biso   1.000  C 
  H145     1.0000 0.55180  0.99590  0.58560  Biso   1.000  H 
  H146     1.0000 0.44820  0.49590  0.91440  Biso   1.000  H 
  H147     1.0000 0.44820  0.00410  0.41440  Biso   1.000  H 
  H148     1.0000 0.55180  0.50410  0.08560  Biso   1.000  H 
  C213     1.0000 0.61360  0.06310  0.65310  Biso   1.000  C 
  C214     1.0000 0.38640  0.56310  0.84690  Biso   1.000  C 
  C215     1.0000 0.38640  0.93690  0.34690  Biso   1.000  C 
  C216     1.0000 0.61360  0.43690  0.15310  Biso   1.000  C 
  H149     1.0000 0.56320  0.06940  0.67670  Biso   1.000  H 
  H150     1.0000 0.43680  0.56940  0.82330  Biso   1.000  H 
  H151     1.0000 0.43680  0.93060  0.32330  Biso   1.000  H 
  H152     1.0000 0.56320  0.43060  0.17670  Biso   1.000  H 
