data_image0
_cell_length_a       9.6496
_cell_length_b       13.681
_cell_length_c       15.425
_cell_angle_alpha    90.037
_cell_angle_beta     75.488
_cell_angle_gamma    77.576

_symmetry_space_group_name_H-M    "P 1"
_symmetry_int_tables_number       1

loop_
  _symmetry_equiv_pos_as_xyz
  'x, y, z'

loop_
  _atom_site_label
  _atom_site_occupancy
  _atom_site_fract_x
  _atom_site_fract_y
  _atom_site_fract_z
  _atom_site_thermal_displace_type
  _atom_site_B_iso_or_equiv
  _atom_site_type_symbol
  C1       1.0000 0.74980  0.20210  0.00830  Biso   1.000  C 
  C2       1.0000 0.75890  0.30010  0.01380  Biso   1.000  C 
  N1       1.0000 0.81890  0.33740  0.07030  Biso   1.000  N 
  C3       1.0000 0.87270  0.27470  0.12390  Biso   1.000  C 
  C4       1.0000 0.87170  0.17360  0.12290  Biso   1.000  C 
  H1       1.0000 0.91330  0.13150  0.16130  Biso   1.000  H 
  C5       1.0000 0.80560  0.13640  0.06170  Biso   1.000  C 
  C6       1.0000 0.79420  0.03000  0.05600  Biso   1.000  C 
  H2       1.0000 0.75440  0.01160  0.01110  Biso   1.000  H 
  C7       1.0000 0.83320  0.96170  0.10630  Biso   1.000  C 
  H3       1.0000 0.87130  0.97990  0.15210  Biso   1.000  H 
  C8       1.0000 0.82350  0.85680  0.09870  Biso   1.000  C 
  C9       1.0000 0.88030  0.79240  0.15270  Biso   1.000  C 
  H4       1.0000 0.92240  0.81570  0.19430  Biso   1.000  H 
  C10      1.0000 0.87770  0.69300  0.14790  Biso   1.000  C 
  N2       1.0000 0.81620  0.65290  0.09180  Biso   1.000  N 
  C11      1.0000 0.75400  0.71650  0.04100  Biso   1.000  C 
  H5       1.0000 0.70850  0.69210  0.00180  Biso   1.000  H 
  C12      1.0000 0.75320  0.81910  0.04330  Biso   1.000  C 
  H6       1.0000 0.70550  0.86150  0.00750  Biso   1.000  H 
  Co1      1.0000 0.81482  0.49447  0.08337  Biso   1.000  Co
  O1       1.0000 0.98580  0.46460  0.13670  Biso   1.000  O 
  C13      1.0000 0.11360  0.47920  0.12030  Biso   1.000  C 
  C14      1.0000 0.17910  0.48090  0.19870  Biso   1.000  C 
  C15      1.0000 0.32750  0.48620  0.18190  Biso   1.000  C 
  H7       1.0000 0.38230  0.48380  0.12270  Biso   1.000  H 
  C16      1.0000 0.39540  0.49480  0.25040  Biso   1.000  C 
  C17      1.0000 0.30990  0.50430  0.34060  Biso   1.000  C 
  C18      1.0000 0.16450  0.49590  0.35630  Biso   1.000  C 
  H8       1.0000 0.10900  0.49910  0.41540  Biso   1.000  H 
  C19      1.0000 0.09810  0.48310  0.28810  Biso   1.000  C 
  C20      1.0000 0.93710  0.47290  0.31650  Biso   1.000  C 
  O2       1.0000 0.91450  0.38560  0.32670  Biso   1.000  O 
  Co2      1.0000 0.68532  0.44297  0.38150  Biso   1.000  Co
  N3       1.0000 0.62700  0.30330  0.40710  Biso   1.000  N 
  C21      1.0000 0.73070  0.22090  0.37560  Biso   1.000  C 
  C22      1.0000 0.71290  0.12420  0.39280  Biso   1.000  C 
  H9       1.0000 0.78800  0.06890  0.36850  Biso   1.000  H 
  C23      1.0000 0.57800  0.11210  0.44800  Biso   1.000  C 
  C24      1.0000 0.47000  0.19730  0.47850  Biso   1.000  C 
  H10      1.0000 0.37850  0.19190  0.51350  Biso   1.000  H 
  C25      1.0000 0.49690  0.28940  0.45760  Biso   1.000  C 
  H11      1.0000 0.42180  0.34560  0.47900  Biso   1.000  H 
  C26      1.0000 0.55950  0.00980  0.47180  Biso   1.000  C 
  C27      1.0000 0.44050  0.99020  0.52820  Biso   1.000  C 
  C28      1.0000 0.42200  0.88790  0.55200  Biso   1.000  C 
  C29      1.0000 0.28710  0.87580  0.60720  Biso   1.000  C 
  H12      1.0000 0.21200  0.93110  0.63150  Biso   1.000  H 
  C30      1.0000 0.26930  0.77910  0.62440  Biso   1.000  C 
  H13      1.0000 0.17960  0.77130  0.66010  Biso   1.000  H 
  N4       1.0000 0.37300  0.69670  0.59290  Biso   1.000  N 
  C31      1.0000 0.50310  0.71060  0.54240  Biso   1.000  C 
  C32      1.0000 0.53000  0.80270  0.52150  Biso   1.000  C 
  H14      1.0000 0.62150  0.80810  0.48650  Biso   1.000  H 
  H15      1.0000 0.57820  0.65440  0.52100  Biso   1.000  H 
  Co3      1.0000 0.31468  0.55703  0.61850  Biso   1.000  Co
  O3       1.0000 0.27070  0.53490  0.49620  Biso   1.000  O 
  C33      1.0000 0.36390  0.52770  0.42110  Biso   1.000  C 
  O4       1.0000 0.48890  0.54350  0.40970  Biso   1.000  O 
  O5       1.0000 0.16320  0.45070  0.66610  Biso   1.000  O 
  C34      1.0000 0.06290  0.52710  0.68350  Biso   1.000  C 
  O6       1.0000 0.08550  0.61440  0.67330  Biso   1.000  O 
  C35      1.0000 0.90190  0.51690  0.71190  Biso   1.000  C 
  C36      1.0000 0.82090  0.51910  0.80130  Biso   1.000  C 
  C37      1.0000 0.67250  0.51380  0.81810  Biso   1.000  C 
  H16      1.0000 0.61770  0.51620  0.87730  Biso   1.000  H 
  C38      1.0000 0.60460  0.50520  0.74960  Biso   1.000  C 
  C39      1.0000 0.69010  0.49570  0.65940  Biso   1.000  C 
  C40      1.0000 0.83550  0.50410  0.64370  Biso   1.000  C 
  H17      1.0000 0.89100  0.50090  0.58460  Biso   1.000  H 
  C41      1.0000 0.63610  0.47230  0.57890  Biso   1.000  C 
  O7       1.0000 0.51110  0.45650  0.59030  Biso   1.000  O 
  O8       1.0000 0.72930  0.46510  0.50380  Biso   1.000  O 
  C42      1.0000 0.43940  0.51100  0.78320  Biso   1.000  C 
  O9       1.0000 0.40020  0.46840  0.85440  Biso   1.000  O 
  Co4      1.0000 0.18518  0.50553  0.91663  Biso   1.000  Co
  N5       1.0000 0.18380  0.34710  0.90820  Biso   1.000  N 
  C43      1.0000 0.24600  0.28350  0.95900  Biso   1.000  C 
  C44      1.0000 0.24680  0.18090  0.95670  Biso   1.000  C 
  C45      1.0000 0.17650  0.14320  0.90130  Biso   1.000  C 
  C46      1.0000 0.16680  0.03830  0.89370  Biso   1.000  C 
  H18      1.0000 0.12870  0.02010  0.84790  Biso   1.000  H 
  C47      1.0000 0.20580  0.97000  0.94400  Biso   1.000  C 
  H19      1.0000 0.24560  0.98840  0.98890  Biso   1.000  H 
  C48      1.0000 0.19440  0.86360  0.93830  Biso   1.000  C 
  C49      1.0000 0.12830  0.82640  0.87710  Biso   1.000  C 
  H20      1.0000 0.08670  0.86850  0.83870  Biso   1.000  H 
  C50      1.0000 0.12730  0.72530  0.87610  Biso   1.000  C 
  H21      1.0000 0.08600  0.70050  0.83490  Biso   1.000  H 
  N6       1.0000 0.18110  0.66260  0.92970  Biso   1.000  N 
  C51      1.0000 0.24110  0.69990  0.98620  Biso   1.000  C 
  H22      1.0000 0.28000  0.65670  0.02490  Biso   1.000  H 
  C52      1.0000 0.25020  0.79790  0.99170  Biso   1.000  C 
  H23      1.0000 0.29530  0.81900  0.03270  Biso   1.000  H 
  C53      1.0000 0.11970  0.20760  0.84730  Biso   1.000  C 
  H24      1.0000 0.07760  0.18430  0.80570  Biso   1.000  H 
  C54      1.0000 0.12230  0.30700  0.85210  Biso   1.000  C 
  H25      1.0000 0.07890  0.34920  0.81440  Biso   1.000  H 
  H26      1.0000 0.29450  0.13850  0.99250  Biso   1.000  H 
  H27      1.0000 0.29150  0.30790  0.99820  Biso   1.000  H 
  O10      1.0000 0.01420  0.53540  0.86330  Biso   1.000  O 
  C55      1.0000 0.88640  0.52080  0.87970  Biso   1.000  C 
  O11      1.0000 0.80890  0.50520  0.95510  Biso   1.000  O 
  O12      1.0000 0.19110  0.49480  0.04490  Biso   1.000  O 
  O13      1.0000 0.34760  0.56000  0.74680  Biso   1.000  O 
  H28      1.0000 0.36430  0.04410  0.55430  Biso   1.000  H 
  H29      1.0000 0.63570  0.95590  0.44570  Biso   1.000  H 
  H30      1.0000 0.82040  0.22870  0.33990  Biso   1.000  H 
  O14      1.0000 0.65240  0.44000  0.25320  Biso   1.000  O 
  C56      1.0000 0.56060  0.48900  0.21680  Biso   1.000  C 
  O15      1.0000 0.59980  0.53160  0.14560  Biso   1.000  O 
  O16      1.0000 0.83680  0.54930  0.33390  Biso   1.000  O 
  H31      1.0000 0.92110  0.65080  0.18560  Biso   1.000  H 
  H32      1.0000 0.91400  0.29950  0.16510  Biso   1.000  H 
  H33      1.0000 0.72000  0.34330  0.97510  Biso   1.000  H 
  H34      1.0000 0.70470  0.18100  0.96730  Biso   1.000  H 
