data_image0
_cell_length_a       7.922
_cell_length_b       15.802
_cell_length_c       19.001
_cell_angle_alpha    73.19
_cell_angle_beta     88.91
_cell_angle_gamma    87.22

_symmetry_space_group_name_H-M    "P 1"
_symmetry_int_tables_number       1

loop_
  _symmetry_equiv_pos_as_xyz
  'x, y, z'

loop_
  _atom_site_label
  _atom_site_occupancy
  _atom_site_fract_x
  _atom_site_fract_y
  _atom_site_fract_z
  _atom_site_thermal_displace_type
  _atom_site_B_iso_or_equiv
  _atom_site_type_symbol
  Pb1      1.0000 0.76470  0.21205  0.70029  Biso   1.000  Pb
  Br1      1.0000 0.50380  0.35070  0.62020  Biso   1.000  Br
  Pb2      1.0000 0.26650  0.21367  0.71009  Biso   1.000  Pb
  Br2      1.0000 0.06320  0.22480  0.58000  Biso   1.000  Br
  Br3      1.0000 0.50020  0.08430  0.67480  Biso   1.000  Br
  Br4      1.0000 0.01730  0.07960  0.79120  Biso   1.000  Br
  Br5      1.0000 0.55540  0.20420  0.82870  Biso   1.000  Br
  Br6      1.0000 0.97140  0.34180  0.73910  Biso   1.000  Br
