data_image0
_cell_length_a       12.8128
_cell_length_b       11.459
_cell_length_c       18.2901
_cell_angle_alpha    90
_cell_angle_beta     120.784
_cell_angle_gamma    90

_symmetry_space_group_name_H-M    "P 1"
_symmetry_int_tables_number       1

loop_
  _symmetry_equiv_pos_as_xyz
  'x, y, z'

loop_
  _atom_site_label
  _atom_site_occupancy
  _atom_site_fract_x
  _atom_site_fract_y
  _atom_site_fract_z
  _atom_site_thermal_displace_type
  _atom_site_B_iso_or_equiv
  _atom_site_type_symbol
  Sn1      1.0000 0.54126  0.83142  0.77912  Biso   1.000  Sn
  C1       1.0000 0.37870  0.75920  0.76355  Biso   1.000  C 
  C2       1.0000 0.30440  0.69010  0.69418  Biso   1.000  C 
  H1       1.0000 0.32470  0.67660  0.65290  Biso   1.000  H 
  C3       1.0000 0.20020  0.64100  0.68530  Biso   1.000  C 
  H2       1.0000 0.15140  0.59420  0.63850  Biso   1.000  H 
  C4       1.0000 0.16860  0.66080  0.74500  Biso   1.000  C 
  H3       1.0000 0.09690  0.62990  0.73790  Biso   1.000  H 
  C5       1.0000 0.24210  0.72560  0.81460  Biso   1.000  C 
  H4       1.0000 0.22200  0.73720  0.85620  Biso   1.000  H 
  C6       1.0000 0.34760  0.77480  0.82430  Biso   1.000  C 
  H5       1.0000 0.39760  0.81880  0.87250  Biso   1.000  H 
  C7       1.0000 0.58170  0.82930  0.68024  Biso   1.000  C 
  C8       1.0000 0.59800  0.93030  0.64670  Biso   1.000  C 
  C9       1.0000 0.62610  0.92560  0.58230  Biso   1.000  C 
  H6       1.0000 0.63840  0.99440  0.56080  Biso   1.000  H 
  C10      1.0000 0.63550  0.82170  0.55100  Biso   1.000  C 
  H7       1.0000 0.65180  0.81900  0.50690  Biso   1.000  H 
  C11      1.0000 0.62130  0.72250  0.58400  Biso   1.000  C 
  H8       1.0000 0.62890  0.65100  0.56310  Biso   1.000  H 
  C12      1.0000 0.59540  0.72540  0.64896  Biso   1.000  C 
  H9       1.0000 0.58720  0.65570  0.67160  Biso   1.000  H 
  H10      1.0000 0.59040  0.00230  0.66700  Biso   1.000  H 
  C13      1.0000 0.66490  0.90830  0.89882  Biso   1.000  C 
  C14      1.0000 0.62880  0.99120  0.93546  Biso   1.000  C 
  H11      1.0000 0.54800  0.01500  0.90740  Biso   1.000  H 
  C15      1.0000 0.71100  0.04010  0.01370  Biso   1.000  C 
  C16      1.0000 0.82780  0.00680  0.05530  Biso   1.000  C 
  H12      1.0000 0.88260  0.03960  0.10770  Biso   1.000  H 
  C17      1.0000 0.86540  0.92410  0.02000  Biso   1.000  C 
  H13      1.0000 0.94610  0.90020  0.04910  Biso   1.000  H 
  C18      1.0000 0.78520  0.87540  0.94130  Biso   1.000  C 
  H14      1.0000 0.81250  0.82070  0.91740  Biso   1.000  H 
  H15      1.0000 0.68480  0.09640  0.03740  Biso   1.000  H 
  O1       1.0000 0.64388  0.66671  0.83547  Biso   1.000  O 
  C19      1.0000 0.62900  0.55820  0.82746  Biso   1.000  C 
  C20      1.0000 0.71580  0.48570  0.89968  Biso   1.000  C 
  H16      1.0000 0.70400  0.40530  0.89610  Biso   1.000  H 
  C21      1.0000 0.80920  0.52870  0.96909  Biso   1.000  C 
  H17      1.0000 0.81730  0.60950  0.97070  Biso   1.000  H 
  C22      1.0000 0.90190  0.46620  0.04389  Biso   1.000  C 
  C23      1.0000 0.91300  0.34630  0.04760  Biso   1.000  C 
  H18      1.0000 0.85940  0.30150  0.00090  Biso   1.000  H 
  C24      1.0000 0.00330  0.29200  0.12030  Biso   1.000  C 
  H19      1.0000 0.00950  0.21110  0.12190  Biso   1.000  H 
  C25      1.0000 0.08320  0.35600  0.18960  Biso   1.000  C 
  H20      1.0000 0.14310  0.31890  0.23830  Biso   1.000  H 
  C26      1.0000 0.07470  0.47320  0.18680  Biso   1.000  C 
  H21      1.0000 0.12970  0.51690  0.23370  Biso   1.000  H 
  C27      1.0000 0.98460  0.52970  0.11472  Biso   1.000  C 
  H22      1.0000 0.97970  0.61070  0.11400  Biso   1.000  H 
  O2       1.0000 0.54368  0.51062  0.76109  Biso   1.000  O 
  Sn2      1.0000 0.45874  0.33142  0.72088  Biso   1.000  Sn
  C28      1.0000 0.41830  0.32930  0.81976  Biso   1.000  C 
  C29      1.0000 0.40200  0.43030  0.85330  Biso   1.000  C 
  H23      1.0000 0.40960  0.50230  0.83300  Biso   1.000  H 
  C30      1.0000 0.37390  0.42560  0.91770  Biso   1.000  C 
  H24      1.0000 0.36160  0.49440  0.93920  Biso   1.000  H 
  C31      1.0000 0.36450  0.32170  0.94900  Biso   1.000  C 
  H25      1.0000 0.34820  0.31900  0.99310  Biso   1.000  H 
  C32      1.0000 0.37870  0.22250  0.91600  Biso   1.000  C 
  H26      1.0000 0.37110  0.15100  0.93690  Biso   1.000  H 
  C33      1.0000 0.40460  0.22540  0.85104  Biso   1.000  C 
  H27      1.0000 0.41280  0.15570  0.82840  Biso   1.000  H 
  O3       1.0000 0.35612  0.16671  0.66453  Biso   1.000  O 
  C34      1.0000 0.37100  0.05820  0.67254  Biso   1.000  C 
  C35      1.0000 0.28420  0.98570  0.60032  Biso   1.000  C 
  H28      1.0000 0.29600  0.90530  0.60390  Biso   1.000  H 
  C36      1.0000 0.19080  0.02870  0.53091  Biso   1.000  C 
  H29      1.0000 0.18270  0.10950  0.52930  Biso   1.000  H 
  C37      1.0000 0.09810  0.96620  0.45611  Biso   1.000  C 
  C38      1.0000 0.08700  0.84630  0.45240  Biso   1.000  C 
  H30      1.0000 0.14060  0.80150  0.49910  Biso   1.000  H 
  C39      1.0000 0.99670  0.79200  0.37970  Biso   1.000  C 
  H31      1.0000 0.99050  0.71110  0.37810  Biso   1.000  H 
  C40      1.0000 0.91680  0.85600  0.31040  Biso   1.000  C 
  H32      1.0000 0.85690  0.81890  0.26170  Biso   1.000  H 
  C41      1.0000 0.92530  0.97320  0.31320  Biso   1.000  C 
  C42      1.0000 0.01540  0.02970  0.38528  Biso   1.000  C 
  H33      1.0000 0.02030  0.11070  0.38600  Biso   1.000  H 
  H34      1.0000 0.87030  0.01690  0.26630  Biso   1.000  H 
  O4       1.0000 0.45632  0.01062  0.73891  Biso   1.000  O 
  C43      1.0000 0.33510  0.40830  0.60118  Biso   1.000  C 
  C44      1.0000 0.21480  0.37540  0.55870  Biso   1.000  C 
  H35      1.0000 0.18750  0.32070  0.58260  Biso   1.000  H 
  C45      1.0000 0.13460  0.42410  0.48000  Biso   1.000  C 
  H36      1.0000 0.05390  0.40020  0.45090  Biso   1.000  H 
  C46      1.0000 0.17220  0.50680  0.44470  Biso   1.000  C 
  H37      1.0000 0.11740  0.53960  0.39230  Biso   1.000  H 
  C47      1.0000 0.28900  0.54010  0.48630  Biso   1.000  C 
  H38      1.0000 0.31520  0.59640  0.46260  Biso   1.000  H 
  C48      1.0000 0.37120  0.49120  0.56454  Biso   1.000  C 
  H39      1.0000 0.45200  0.51500  0.59260  Biso   1.000  H 
  C49      1.0000 0.62130  0.25920  0.73645  Biso   1.000  C 
  C50      1.0000 0.69560  0.19010  0.80582  Biso   1.000  C 
  H40      1.0000 0.67530  0.17660  0.84710  Biso   1.000  H 
  C51      1.0000 0.79980  0.14100  0.81470  Biso   1.000  C 
  H41      1.0000 0.84860  0.09420  0.86150  Biso   1.000  H 
  C52      1.0000 0.83140  0.16080  0.75500  Biso   1.000  C 
  C53      1.0000 0.75790  0.22560  0.68540  Biso   1.000  C 
  H42      1.0000 0.77800  0.23720  0.64380  Biso   1.000  H 
  C54      1.0000 0.65240  0.27480  0.67570  Biso   1.000  C 
  H43      1.0000 0.60240  0.31880  0.62750  Biso   1.000  H 
  H44      1.0000 0.90310  0.12990  0.76210  Biso   1.000  H 
