data_image0
_cell_length_a       12.808
_cell_length_b       11.473
_cell_length_c       16.064
_cell_angle_alpha    90
_cell_angle_beta     102.34
_cell_angle_gamma    90

_symmetry_space_group_name_H-M    "P 1"
_symmetry_int_tables_number       1

loop_
  _symmetry_equiv_pos_as_xyz
  'x, y, z'

loop_
  _atom_site_label
  _atom_site_occupancy
  _atom_site_fract_x
  _atom_site_fract_y
  _atom_site_fract_z
  _atom_site_thermal_displace_type
  _atom_site_B_iso_or_equiv
  _atom_site_type_symbol
  Sn1      1.0000 0.23791  0.16865  0.27915  Biso   1.000  Sn
  C1       1.0000 0.09840  0.17100  0.18070  Biso   1.000  C 
  C2       1.0000 0.05390  0.27390  0.14880  Biso   1.000  C 
  H1       1.0000 0.09081  0.35540  0.17460  Biso   1.000  H 
  C3       1.0000 0.96250  0.27730  0.08410  Biso   1.000  C 
  H2       1.0000 0.92897  0.36092  0.05977  Biso   1.000  H 
  C4       1.0000 0.91570  0.17870  0.05170  Biso   1.000  C 
  H3       1.0000 0.84465  0.18150  0.00049  Biso   1.000  H 
  C5       1.0000 0.95670  0.07600  0.08260  Biso   1.000  C 
  H4       1.0000 0.91776  0.99532  0.05710  Biso   1.000  H 
  C6       1.0000 0.04820  0.07170  0.14670  Biso   1.000  C 
  H5       1.0000 0.08065  0.98737  0.17038  Biso   1.000  H 
  C7       1.0000 0.38420  0.24060  0.26360  Biso   1.000  C 
  C8       1.0000 0.39080  0.30950  0.19520  Biso   1.000  C 
  H6       1.0000 0.31872  0.32605  0.14681  Biso   1.000  H 
  C9       1.0000 0.48570  0.35840  0.18580  Biso   1.000  C 
  H7       1.0000 0.48801  0.41283  0.13068  Biso   1.000  H 
  C10      1.0000 0.57660  0.33860  0.24550  Biso   1.000  C 
  H8       1.0000 0.65226  0.37555  0.23774  Biso   1.000  H 
  C11      1.0000 0.57250  0.27300  0.31430  Biso   1.000  C 
  C12      1.0000 0.47660  0.22480  0.32360  Biso   1.000  C 
  H9       1.0000 0.47457  0.17301  0.38005  Biso   1.000  H 
  H10      1.0000 0.64485  0.25787  0.36272  Biso   1.000  H 
  C13      1.0000 0.23330  0.09180  0.39870  Biso   1.000  C 
  C14      1.0000 0.15610  0.12450  0.44150  Biso   1.000  C 
  H11      1.0000 0.09590  0.18878  0.41422  Biso   1.000  H 
  C15      1.0000 0.15590  0.07440  0.52010  Biso   1.000  C 
  H12      1.0000 0.09545  0.10154  0.55455  Biso   1.000  H 
  C16      1.0000 0.22750  0.99390  0.55490  Biso   1.000  C 
  H13      1.0000 0.22518  0.95573  0.61654  Biso   1.000  H 
  C17      1.0000 0.30100  0.96150  0.51330  Biso   1.000  C 
  H14      1.0000 0.35899  0.89527  0.54102  Biso   1.000  H 
  C18      1.0000 0.30620  0.00930  0.43580  Biso   1.000  C 
  H15      1.0000 0.36864  0.98150  0.40359  Biso   1.000  H 
  O1       1.0000 0.19170  0.33290  0.33520  Biso   1.000  O 
  C19      1.0000 0.19910  0.44210  0.32740  Biso   1.000  C 
  O2       1.0000 0.21710  0.48890  0.26050  Biso   1.000  O 
  Sn2      1.0000 0.26209  0.66865  0.22085  Biso   1.000  Sn
  O3       1.0000 0.30830  0.83290  0.16480  Biso   1.000  O 
  C20      1.0000 0.30090  0.94210  0.17260  Biso   1.000  C 
  O4       1.0000 0.28290  0.98890  0.23950  Biso   1.000  O 
  C21      1.0000 0.31630  0.01400  0.10040  Biso   1.000  C 
  H16      1.0000 0.30740  0.10806  0.10481  Biso   1.000  H 
  C22      1.0000 0.34020  0.97130  0.03080  Biso   1.000  C 
  H17      1.0000 0.34754  0.87683  0.02879  Biso   1.000  H 
  C23      1.0000 0.35820  0.03360  0.95590  Biso   1.000  C 
  C24      1.0000 0.36520  0.15260  0.95190  Biso   1.000  C 
  C25      1.0000 0.38240  0.20660  0.87920  Biso   1.000  C 
  H18      1.0000 0.38699  0.30127  0.87665  Biso   1.000  H 
  C26      1.0000 0.39350  0.14250  0.81150  Biso   1.000  C 
  H19      1.0000 0.40755  0.18550  0.75446  Biso   1.000  H 
  C27      1.0000 0.38740  0.02690  0.81390  Biso   1.000  C 
  H20      1.0000 0.39613  0.97604  0.75856  Biso   1.000  H 
  C28      1.0000 0.37020  0.97080  0.88540  Biso   1.000  C 
  H21      1.0000 0.36603  0.87602  0.88634  Biso   1.000  H 
  H22      1.0000 0.35711  0.20511  0.00664  Biso   1.000  H 
  C29      1.0000 0.26670  0.59180  0.10130  Biso   1.000  C 
  C30      1.0000 0.19380  0.50930  0.06420  Biso   1.000  C 
  H23      1.0000 0.13136  0.48150  0.09641  Biso   1.000  H 
  C31      1.0000 0.19900  0.46150  0.98670  Biso   1.000  C 
  C32      1.0000 0.27250  0.49390  0.94510  Biso   1.000  C 
  H24      1.0000 0.27482  0.45573  0.88346  Biso   1.000  H 
  C33      1.0000 0.34410  0.57440  0.97990  Biso   1.000  C 
  H25      1.0000 0.40455  0.60154  0.94545  Biso   1.000  H 
  C34      1.0000 0.34390  0.62450  0.05850  Biso   1.000  C 
  H26      1.0000 0.40410  0.68878  0.08578  Biso   1.000  H 
  H27      1.0000 0.14101  0.39527  0.95898  Biso   1.000  H 
  C35      1.0000 0.11580  0.74060  0.23640  Biso   1.000  C 
  C36      1.0000 0.02340  0.72480  0.17640  Biso   1.000  C 
  H28      1.0000 0.02543  0.67301  0.11995  Biso   1.000  H 
  C37      1.0000 0.92750  0.77300  0.18570  Biso   1.000  C 
  H29      1.0000 0.85515  0.75787  0.13728  Biso   1.000  H 
  C38      1.0000 0.92340  0.83860  0.25450  Biso   1.000  C 
  H30      1.0000 0.84774  0.87555  0.26226  Biso   1.000  H 
  C39      1.0000 0.01430  0.85840  0.31420  Biso   1.000  C 
  H31      1.0000 0.01199  0.91283  0.36932  Biso   1.000  H 
  C40      1.0000 0.10920  0.80950  0.30480  Biso   1.000  C 
  H32      1.0000 0.18128  0.82605  0.35319  Biso   1.000  H 
  C41      1.0000 0.40160  0.67100  0.31930  Biso   1.000  C 
  C42      1.0000 0.45180  0.57170  0.35330  Biso   1.000  C 
  H33      1.0000 0.41935  0.48737  0.32962  Biso   1.000  H 
  C43      1.0000 0.54330  0.57600  0.41740  Biso   1.000  C 
  C44      1.0000 0.58430  0.67870  0.44830  Biso   1.000  C 
  C45      1.0000 0.53750  0.77730  0.41590  Biso   1.000  C 
  C46      1.0000 0.44610  0.77390  0.35120  Biso   1.000  C 
  H34      1.0000 0.40919  0.85540  0.32540  Biso   1.000  H 
  H35      1.0000 0.57103  0.86092  0.44023  Biso   1.000  H 
  H36      1.0000 0.65535  0.68150  0.49951  Biso   1.000  H 
  H37      1.0000 0.58224  0.49532  0.44290  Biso   1.000  H 
  C47      1.0000 0.18370  0.51400  0.39960  Biso   1.000  C 
  H38      1.0000 0.19260  0.60806  0.39519  Biso   1.000  H 
  C48      1.0000 0.15980  0.47130  0.46920  Biso   1.000  C 
  H39      1.0000 0.15246  0.37683  0.47121  Biso   1.000  H 
  C49      1.0000 0.14180  0.53360  0.54410  Biso   1.000  C 
  C50      1.0000 0.12980  0.47080  0.61460  Biso   1.000  C 
  H40      1.0000 0.13397  0.37602  0.61366  Biso   1.000  H 
  C51      1.0000 0.11260  0.52690  0.68610  Biso   1.000  C 
  H41      1.0000 0.10387  0.47604  0.74144  Biso   1.000  H 
  C52      1.0000 0.10650  0.64250  0.68850  Biso   1.000  C 
  H42      1.0000 0.09245  0.68550  0.74554  Biso   1.000  H 
  C53      1.0000 0.11760  0.70660  0.62080  Biso   1.000  C 
  C54      1.0000 0.13480  0.65260  0.54810  Biso   1.000  C 
  H43      1.0000 0.14289  0.70511  0.49336  Biso   1.000  H 
  H44      1.0000 0.11301  0.80127  0.62335  Biso   1.000  H 
