data_image0
_cell_length_a       10.387
_cell_length_b       10.387
_cell_length_c       20.9582
_cell_angle_alpha    90
_cell_angle_beta     90
_cell_angle_gamma    120

_symmetry_space_group_name_H-M    "P 1"
_symmetry_int_tables_number       1

loop_
  _symmetry_equiv_pos_as_xyz
  'x, y, z'

loop_
  _atom_site_label
  _atom_site_occupancy
  _atom_site_fract_x
  _atom_site_fract_y
  _atom_site_fract_z
  _atom_site_thermal_displace_type
  _atom_site_B_iso_or_equiv
  _atom_site_type_symbol
  Ag1      1.0000 0.70380  0.85474  0.24002  Biso   1.000  Ag
  N1       1.0000 0.55000  0.96300  0.22727  Biso   1.000  N 
  C1       1.0000 0.42000  0.89900  0.25507  Biso   1.000  C 
  H1       1.0000 0.40420  0.83010  0.28817  Biso   1.000  H 
  C2       1.0000 0.30100  0.92300  0.24057  Biso   1.000  C 
  H2       1.0000 0.20490  0.86190  0.25807  Biso   1.000  H 
  C3       1.0000 0.32940  0.03870  0.20037  Biso   1.000  C 
  C4       1.0000 0.47180  0.11840  0.17787  Biso   1.000  C 
  H3       1.0000 0.49970  0.20390  0.15227  Biso   1.000  H 
  C5       1.0000 0.57500  0.07700  0.19157  Biso   1.000  C 
  H4       1.0000 0.67080  0.13460  0.17377  Biso   1.000  H 
  N2       1.0000 0.22120  0.07860  0.18667  Biso   1.000  N 
  C6       1.0000 0.12470  0.06800  0.24177  Biso   1.000  C 
  H5       1.0000 0.06000  0.10830  0.22897  Biso   1.000  H 
  N3       1.0000 0.21160  0.14830  0.29607  Biso   1.000  N 
  C7       1.0000 0.19210  0.08470  0.35757  Biso   1.000  C 
  C8       1.0000 0.25800  0.17010  0.41067  Biso   1.000  C 
  H6       1.0000 0.31840  0.27500  0.40677  Biso   1.000  H 
  C9       1.0000 0.23650  0.10370  0.46937  Biso   1.000  C 
  H7       1.0000 0.28180  0.16640  0.50517  Biso   1.000  H 
  N4       1.0000 0.15810  0.96030  0.47967  Biso   1.000  N 
  C10      1.0000 0.09000  0.87700  0.43117  Biso   1.000  C 
  H8       1.0000 0.02750  0.77300  0.43797  Biso   1.000  H 
  C11      1.0000 0.10310  0.93410  0.36737  Biso   1.000  C 
  H9       1.0000 0.05130  0.86950  0.33277  Biso   1.000  H 
  Ag2      1.0000 0.14526  0.84906  0.57335  Biso   1.000  Ag
  N5       1.0000 0.03700  0.58700  0.56060  Biso   1.000  N 
  C12      1.0000 0.10100  0.52100  0.58840  Biso   1.000  C 
  H10      1.0000 0.16990  0.57410  0.62150  Biso   1.000  H 
  C13      1.0000 0.07700  0.37800  0.57390  Biso   1.000  C 
  H11      1.0000 0.13810  0.34300  0.59140  Biso   1.000  H 
  C14      1.0000 0.96130  0.29070  0.53370  Biso   1.000  C 
  C15      1.0000 0.88160  0.35340  0.51120  Biso   1.000  C 
  H12      1.0000 0.79610  0.29580  0.48560  Biso   1.000  H 
  C16      1.0000 0.92300  0.49800  0.52490  Biso   1.000  C 
  H13      1.0000 0.86540  0.53620  0.50710  Biso   1.000  H 
  N6       1.0000 0.92140  0.14260  0.52000  Biso   1.000  N 
  C17      1.0000 0.87760  0.07840  0.46060  Biso   1.000  C 
  C18      1.0000 0.79400  0.92580  0.44940  Biso   1.000  C 
  C19      1.0000 0.75500  0.87100  0.38890  Biso   1.000  C 
  H14      1.0000 0.70090  0.76570  0.38400  Biso   1.000  H 
  N7       1.0000 0.78790  0.95440  0.33530  Biso   1.000  N 
  C20      1.0000 0.86910  0.10360  0.34610  Biso   1.000  C 
  H15      1.0000 0.89810  0.16830  0.31030  Biso   1.000  H 
  C21      1.0000 0.91170  0.16590  0.40570  Biso   1.000  C 
  H16      1.0000 0.96560  0.27110  0.40970  Biso   1.000  H 
  H17      1.0000 0.76260  0.85900  0.48450  Biso   1.000  H 
  C22      1.0000 0.93200  0.05670  0.57510  Biso   1.000  C 
  H18      1.0000 0.03780  0.09770  0.58670  Biso   1.000  H 
  N8       1.0000 0.85170  0.06330  0.62940  Biso   1.000  N 
  C23      1.0000 0.69690  0.01460  0.61980  Biso   1.000  C 
  C24      1.0000 0.64350  0.11180  0.63330  Biso   1.000  C 
  C25      1.0000 0.49200  0.05400  0.61970  Biso   1.000  C 
  H19      1.0000 0.45100  0.11480  0.63090  Biso   1.000  H 
  N9       1.0000 0.39910  0.92110  0.59220  Biso   1.000  N 
  C26      1.0000 0.46200  0.84100  0.58090  Biso   1.000  C 
  H20      1.0000 0.40160  0.74660  0.56150  Biso   1.000  H 
  C27      1.0000 0.60500  0.87700  0.59390  Biso   1.000  C 
  H21      1.0000 0.63940  0.80960  0.58530  Biso   1.000  H 
  H22      1.0000 0.70470  0.20860  0.65030  Biso   1.000  H 
  C28      1.0000 0.91530  0.10740  0.69090  Biso   1.000  C 
  C29      1.0000 0.82990  0.08790  0.74400  Biso   1.000  C 
  H23      1.0000 0.72500  0.04340  0.74010  Biso   1.000  H 
  C30      1.0000 0.89630  0.13280  0.80270  Biso   1.000  C 
  H24      1.0000 0.83360  0.11540  0.83850  Biso   1.000  H 
  N10      1.0000 0.03970  0.19780  0.81300  Biso   1.000  N 
  C31      1.0000 0.12300  0.21300  0.76450  Biso   1.000  C 
  H25      1.0000 0.22700  0.25450  0.77130  Biso   1.000  H 
  C32      1.0000 0.06590  0.16900  0.70070  Biso   1.000  C 
  H26      1.0000 0.13050  0.18180  0.66610  Biso   1.000  H 
  Ag3      1.0000 0.15094  0.29620  0.90669  Biso   1.000  Ag
  N11      1.0000 0.07890  0.47800  0.92553  Biso   1.000  N 
  C33      1.0000 0.15900  0.62100  0.91423  Biso   1.000  C 
  H27      1.0000 0.25340  0.65500  0.89483  Biso   1.000  H 
  C34      1.0000 0.12300  0.72800  0.92723  Biso   1.000  C 
  H28      1.0000 0.19040  0.82980  0.91863  Biso   1.000  H 
  C35      1.0000 0.98540  0.68230  0.95313  Biso   1.000  C 
  N12      1.0000 0.93670  0.78840  0.96273  Biso   1.000  N 
  C36      1.0000 0.94330  0.87530  0.90843  Biso   1.000  C 
  H29      1.0000 0.90230  0.94010  0.92003  Biso   1.000  H 
  H30      1.0000 0.04830  0.94000  0.89563  Biso   1.000  H 
  N13      1.0000 0.85740  0.77880  0.85333  Biso   1.000  N 
  C37      1.0000 0.70930  0.67060  0.86703  Biso   1.000  C 
  C38      1.0000 0.64660  0.52820  0.84453  Biso   1.000  C 
  H31      1.0000 0.70420  0.50030  0.81893  Biso   1.000  H 
  C39      1.0000 0.50200  0.42500  0.85823  Biso   1.000  C 
  H32      1.0000 0.46380  0.32920  0.84043  Biso   1.000  H 
  N14      1.0000 0.41300  0.45000  0.89393  Biso   1.000  N 
  C40      1.0000 0.47900  0.58000  0.92173  Biso   1.000  C 
  H33      1.0000 0.42590  0.59580  0.95483  Biso   1.000  H 
  C41      1.0000 0.62200  0.69900  0.90723  Biso   1.000  C 
  H34      1.0000 0.65700  0.79510  0.92473  Biso   1.000  H 
  C42      1.0000 0.92160  0.79920  0.79393  Biso   1.000  C 
  C43      1.0000 0.07420  0.86820  0.78273  Biso   1.000  C 
  C44      1.0000 0.12900  0.88400  0.72223  Biso   1.000  C 
  H35      1.0000 0.23430  0.93520  0.71733  Biso   1.000  H 
  N15      1.0000 0.04560  0.83350  0.66863  Biso   1.000  N 
  C45      1.0000 0.89640  0.76550  0.67943  Biso   1.000  C 
  H36      1.0000 0.83170  0.72980  0.64363  Biso   1.000  H 
  C46      1.0000 0.83410  0.74580  0.73903  Biso   1.000  C 
  H37      1.0000 0.72890  0.69450  0.74303  Biso   1.000  H 
  H38      1.0000 0.14100  0.90360  0.81783  Biso   1.000  H 
  C47      1.0000 0.89260  0.80790  0.02423  Biso   1.000  C 
  C48      1.0000 0.91210  0.74200  0.07733  Biso   1.000  C 
  H39      1.0000 0.95660  0.68160  0.07343  Biso   1.000  H 
  C49      1.0000 0.86720  0.76350  0.13603  Biso   1.000  C 
  H40      1.0000 0.88460  0.71820  0.17183  Biso   1.000  H 
  N16      1.0000 0.80220  0.84190  0.14633  Biso   1.000  N 
  C50      1.0000 0.78700  0.91000  0.09783  Biso   1.000  C 
  H41      1.0000 0.74550  0.97250  0.10463  Biso   1.000  H 
  C51      1.0000 0.83100  0.89690  0.03403  Biso   1.000  C 
  H42      1.0000 0.81820  0.94870  0.99943  Biso   1.000  H 
  C52      1.0000 0.88820  0.53170  0.96663  Biso   1.000  C 
  H43      1.0000 0.79140  0.49610  0.98363  Biso   1.000  H 
  C53      1.0000 0.94600  0.43800  0.95303  Biso   1.000  C 
  H44      1.0000 0.88520  0.33620  0.96423  Biso   1.000  H 
  N17      1.0000 0.16650  0.21210  0.00197  Biso   1.000  N 
  C54      1.0000 0.23450  0.13090  0.01277  Biso   1.000  C 
  C55      1.0000 0.25420  0.08830  0.07237  Biso   1.000  C 
  C56      1.0000 0.20080  0.12240  0.12727  Biso   1.000  C 
  C57      1.0000 0.13180  0.20600  0.11607  Biso   1.000  C 
  H45      1.0000 0.09640  0.23740  0.15117  Biso   1.000  H 
  C58      1.0000 0.11600  0.24500  0.05557  Biso   1.000  C 
  H46      1.0000 0.06480  0.29910  0.05067  Biso   1.000  H 
  H47      1.0000 0.30550  0.03440  0.07637  Biso   1.000  H 
  H48      1.0000 0.27020  0.10190  0.97697  Biso   1.000  H 
  H49      1.0000 0.89170  0.95170  0.56230  Biso   1.000  H 
  C59      1.0000 0.31770  0.30310  0.28647  Biso   1.000  C 
  C60      1.0000 0.46830  0.35650  0.29997  Biso   1.000  C 
  H50      1.0000 0.50390  0.29530  0.31697  Biso   1.000  H 
  C61      1.0000 0.56200  0.50800  0.28637  Biso   1.000  C 
  H51      1.0000 0.66380  0.54900  0.29757  Biso   1.000  H 
  N18      1.0000 0.52200  0.60090  0.25887  Biso   1.000  N 
  C62      1.0000 0.37900  0.53800  0.24757  Biso   1.000  C 
  H52      1.0000 0.34500  0.59840  0.22817  Biso   1.000  H 
  C63      1.0000 0.27200  0.39500  0.26057  Biso   1.000  C 
  H53      1.0000 0.17020  0.36060  0.25197  Biso   1.000  H 
  H54      1.0000 0.05990  0.96220  0.25337  Biso   1.000  H 
