data_image0
_cell_length_a       14.1724
_cell_length_b       15.7947
_cell_length_c       18.0715
_cell_angle_alpha    115.38
_cell_angle_beta     101.319
_cell_angle_gamma    93.472

_symmetry_space_group_name_H-M    "P 1"
_symmetry_int_tables_number       1

loop_
  _symmetry_equiv_pos_as_xyz
  'x, y, z'

loop_
  _atom_site_label
  _atom_site_occupancy
  _atom_site_fract_x
  _atom_site_fract_y
  _atom_site_fract_z
  _atom_site_thermal_displace_type
  _atom_site_B_iso_or_equiv
  _atom_site_type_symbol
  Co1      1.0000 0.95586  0.71998  0.18027  Biso   1.000  Co
  Co2      1.0000 0.04414  0.28002  0.81973  Biso   1.000  Co
  C1       1.0000 0.86260  0.57850  0.22850  Biso   1.000  C 
  C2       1.0000 0.13740  0.42150  0.77150  Biso   1.000  C 
  H1       1.0000 0.92490  0.59340  0.26620  Biso   1.000  H 
  H2       1.0000 0.07510  0.40660  0.73380  Biso   1.000  H 
  C3       1.0000 0.78890  0.52200  0.23440  Biso   1.000  C 
  C4       1.0000 0.21110  0.47800  0.76560  Biso   1.000  C 
  H3       1.0000 0.80090  0.49910  0.27560  Biso   1.000  H 
  H4       1.0000 0.19910  0.50090  0.72440  Biso   1.000  H 
  C5       1.0000 0.69700  0.49890  0.17970  Biso   1.000  C 
  C6       1.0000 0.30300  0.50110  0.82030  Biso   1.000  C 
  C7       1.0000 0.68390  0.53360  0.12070  Biso   1.000  C 
  C8       1.0000 0.31610  0.46640  0.87930  Biso   1.000  C 
  H5       1.0000 0.62240  0.51920  0.08190  Biso   1.000  H 
  H6       1.0000 0.37760  0.48080  0.91810  Biso   1.000  H 
  C9       1.0000 0.76160  0.58970  0.11880  Biso   1.000  C 
  C10      1.0000 0.23840  0.41030  0.88120  Biso   1.000  C 
  H7       1.0000 0.75170  0.61280  0.07770  Biso   1.000  H 
  H8       1.0000 0.24830  0.38720  0.92230  Biso   1.000  H 
  C11      1.0000 0.61810  0.44270  0.18510  Biso   1.000  C 
  C12      1.0000 0.38190  0.55730  0.81490  Biso   1.000  C 
  C13      1.0000 0.55420  0.39500  0.19020  Biso   1.000  C 
  C14      1.0000 0.44580  0.60500  0.80980  Biso   1.000  C 
  C15      1.0000 0.47960  0.33220  0.19490  Biso   1.000  C 
  C16      1.0000 0.52040  0.66780  0.80510  Biso   1.000  C 
  C17      1.0000 0.50850  0.26380  0.21990  Biso   1.000  C 
  C18      1.0000 0.49150  0.73620  0.78010  Biso   1.000  C 
  H9       1.0000 0.57570  0.26030  0.23530  Biso   1.000  H 
  H10      1.0000 0.42430  0.73970  0.76470  Biso   1.000  H 
  C19      1.0000 0.43700  0.20000  0.22210  Biso   1.000  C 
  C20      1.0000 0.56300  0.80000  0.77790  Biso   1.000  C 
  H11      1.0000 0.45570  0.15320  0.23930  Biso   1.000  H 
  H12      1.0000 0.54430  0.84680  0.76070  Biso   1.000  H 
  C21      1.0000 0.33850  0.20520  0.19910  Biso   1.000  C 
  C22      1.0000 0.66150  0.79480  0.80090  Biso   1.000  C 
  C23      1.0000 0.31130  0.27550  0.17690  Biso   1.000  C 
  C24      1.0000 0.68870  0.72450  0.82310  Biso   1.000  C 
  H13      1.0000 0.24430  0.28030  0.16290  Biso   1.000  H 
  H14      1.0000 0.75570  0.71970  0.83710  Biso   1.000  H 
  C25      1.0000 0.38140  0.33850  0.17510  Biso   1.000  C 
  C26      1.0000 0.61860  0.66150  0.82490  Biso   1.000  C 
  H15      1.0000 0.36230  0.38680  0.16000  Biso   1.000  H 
  H16      1.0000 0.63770  0.61320  0.84000  Biso   1.000  H 
  C27      1.0000 0.26880  0.13550  0.19910  Biso   1.000  C 
  C28      1.0000 0.73120  0.86450  0.80090  Biso   1.000  C 
  C29      1.0000 0.21600  0.07380  0.19820  Biso   1.000  C 
  C30      1.0000 0.78400  0.92620  0.80180  Biso   1.000  C 
  C31      1.0000 0.13680  0.83920  0.18560  Biso   1.000  C 
  C32      1.0000 0.86320  0.16080  0.81440  Biso   1.000  C 
  H17      1.0000 0.16470  0.78440  0.18100  Biso   1.000  H 
  H18      1.0000 0.83530  0.21560  0.81900  Biso   1.000  H 
  C33      1.0000 0.19310  0.91340  0.18690  Biso   1.000  C 
  C34      1.0000 0.80690  0.08660  0.81310  Biso   1.000  C 
  H19      1.0000 0.25820  0.90870  0.18160  Biso   1.000  H 
  H20      1.0000 0.74180  0.09130  0.81840  Biso   1.000  H 
  C35      1.0000 0.15620  0.99520  0.19590  Biso   1.000  C 
  C36      1.0000 0.84380  0.00480  0.80410  Biso   1.000  C 
  C37      1.0000 0.05990  0.99800  0.20170  Biso   1.000  C 
  C38      1.0000 0.94010  0.00200  0.79830  Biso   1.000  C 
  H21      1.0000 0.03100  0.05260  0.20810  Biso   1.000  H 
  H22      1.0000 0.96900  0.94740  0.79190  Biso   1.000  H 
  C39      1.0000 0.00750  0.91870  0.19780  Biso   1.000  C 
  C40      1.0000 0.99250  0.08130  0.80220  Biso   1.000  C 
  H23      1.0000 0.94130  0.92020  0.20050  Biso   1.000  H 
  H24      1.0000 0.05870  0.07980  0.79950  Biso   1.000  H 
  C41      1.0000 0.12600  0.72620  0.31790  Biso   1.000  C 
  C42      1.0000 0.87400  0.27380  0.68210  Biso   1.000  C 
  H25      1.0000 0.11050  0.78760  0.34790  Biso   1.000  H 
  H26      1.0000 0.88950  0.21240  0.65210  Biso   1.000  H 
  C43      1.0000 0.19780  0.69680  0.35980  Biso   1.000  C 
  C44      1.0000 0.80220  0.30320  0.64020  Biso   1.000  C 
  H27      1.0000 0.23010  0.73680  0.41730  Biso   1.000  H 
  H28      1.0000 0.76990  0.26320  0.58270  Biso   1.000  H 
  C45      1.0000 0.22250  0.60870  0.31780  Biso   1.000  C 
  C46      1.0000 0.77750  0.39130  0.68220  Biso   1.000  C 
  C47      1.0000 0.17330  0.55400  0.23330  Biso   1.000  C 
  C48      1.0000 0.82670  0.44600  0.76670  Biso   1.000  C 
  H29      1.0000 0.18930  0.49350  0.20140  Biso   1.000  H 
  H30      1.0000 0.81070  0.50650  0.79860  Biso   1.000  H 
  C49      1.0000 0.10100  0.58870  0.19650  Biso   1.000  C 
  C50      1.0000 0.89900  0.41130  0.80350  Biso   1.000  C 
  H31      1.0000 0.06710  0.55010  0.13920  Biso   1.000  H 
  H32      1.0000 0.93290  0.44990  0.86080  Biso   1.000  H 
  C51      1.0000 0.29520  0.57520  0.36120  Biso   1.000  C 
  C52      1.0000 0.70480  0.42480  0.63880  Biso   1.000  C 
  C53      1.0000 0.35460  0.55090  0.40150  Biso   1.000  C 
  C54      1.0000 0.64540  0.44910  0.59850  Biso   1.000  C 
  C55      1.0000 0.42810  0.52480  0.45180  Biso   1.000  C 
  C56      1.0000 0.57190  0.47520  0.54820  Biso   1.000  C 
  C57      1.0000 0.47130  0.58720  0.53520  Biso   1.000  C 
  C58      1.0000 0.52870  0.41280  0.46480  Biso   1.000  C 
  H33      1.0000 0.45170  0.64760  0.55990  Biso   1.000  H 
  H34      1.0000 0.54830  0.35240  0.44010  Biso   1.000  H 
  C59      1.0000 0.45720  0.43730  0.41690  Biso   1.000  C 
  C60      1.0000 0.54280  0.56270  0.58310  Biso   1.000  C 
  H35      1.0000 0.42810  0.39360  0.35970  Biso   1.000  H 
  H36      1.0000 0.57190  0.60640  0.64030  Biso   1.000  H 
  N1       1.0000 0.85020  0.61303  0.17232  Biso   1.000  N 
  N2       1.0000 0.14980  0.38697  0.82768  Biso   1.000  N 
  N3       1.0000 0.04368  0.84080  0.19057  Biso   1.000  N 
  N4       1.0000 0.95632  0.15920  0.80943  Biso   1.000  N 
  N5       1.0000 0.07647  0.67390  0.23735  Biso   1.000  N 
  N6       1.0000 0.92353  0.32610  0.76265  Biso   1.000  N 
  N7       1.0000 0.86990  0.83950  0.29370  Biso   1.000  N 
  N8       1.0000 0.13010  0.16050  0.70630  Biso   1.000  N 
  N9       1.0000 0.92330  0.66080  0.01670  Biso   1.000  N 
  N10      1.0000 0.07670  0.33920  0.98330  Biso   1.000  N 
  O1       1.0000 0.94423  0.80774  0.30949  Biso   1.000  O 
  O2       1.0000 0.05577  0.19226  0.69051  Biso   1.000  O 
  O3       1.0000 0.83630  0.89770  0.34800  Biso   1.000  O 
  O4       1.0000 0.16370  0.10230  0.65200  Biso   1.000  O 
  O5       1.0000 0.82960  0.81110  0.21690  Biso   1.000  O 
  O6       1.0000 0.17040  0.18890  0.78310  Biso   1.000  O 
  O7       1.0000 0.98292  0.63062  0.05801  Biso   1.000  O 
  O8       1.0000 0.01708  0.36938  0.94199  Biso   1.000  O 
  O9       1.0000 0.87405  0.71778  0.05869  Biso   1.000  O 
  O10      1.0000 0.12595  0.28222  0.94131  Biso   1.000  O 
  O11      1.0000 0.91680  0.63720  0.94149  Biso   1.000  O 
  O12      1.0000 0.08320  0.36280  0.05851  Biso   1.000  O 
  Co3      1.0000 0.44415  0.72928  0.17646  Biso   1.000  Co
  Co4      1.0000 0.55585  0.27072  0.82354  Biso   1.000  Co
  C61      1.0000 0.34310  0.77290  0.03190  Biso   1.000  C 
  C62      1.0000 0.65690  0.22710  0.96810  Biso   1.000  C 
  H37      1.0000 0.40250  0.81530  0.04930  Biso   1.000  H 
  H38      1.0000 0.59750  0.18470  0.95070  Biso   1.000  H 
  C63      1.0000 0.27440  0.76400  0.96260  Biso   1.000  C 
  C64      1.0000 0.72560  0.23600  0.03740  Biso   1.000  C 
  H39      1.0000 0.28710  0.79930  0.93320  Biso   1.000  H 
  H40      1.0000 0.71290  0.20070  0.06680  Biso   1.000  H 
  C65      1.0000 0.18770  0.70420  0.93610  Biso   1.000  C 
  C66      1.0000 0.81230  0.29580  0.06390  Biso   1.000  C 
  C67      1.0000 0.17310  0.65470  0.98200  Biso   1.000  C 
  C68      1.0000 0.82690  0.34530  0.01800  Biso   1.000  C 
  H41      1.0000 0.11400  0.61250  0.96610  Biso   1.000  H 
  H42      1.0000 0.88600  0.38750  0.03390  Biso   1.000  H 
  C69      1.0000 0.24600  0.66800  0.05090  Biso   1.000  C 
  C70      1.0000 0.75400  0.33200  0.94910  Biso   1.000  C 
  H43      1.0000 0.23490  0.63460  0.08210  Biso   1.000  H 
  H44      1.0000 0.76510  0.36540  0.91790  Biso   1.000  H 
  C71      1.0000 0.11550  0.69420  0.86440  Biso   1.000  C 
  C72      1.0000 0.88450  0.30580  0.13560  Biso   1.000  C 
  C73      1.0000 0.05680  0.69110  0.80630  Biso   1.000  C 
  C74      1.0000 0.94320  0.30890  0.19370  Biso   1.000  C 
  C75      1.0000 0.98720  0.68950  0.73560  Biso   1.000  C 
  C76      1.0000 0.01280  0.31050  0.26440  Biso   1.000  C 
  C77      1.0000 0.01970  0.74520  0.69410  Biso   1.000  C 
  C78      1.0000 0.98030  0.25480  0.30590  Biso   1.000  C 
  H45      1.0000 0.08360  0.78050  0.71320  Biso   1.000  H 
  H46      1.0000 0.91640  0.21950  0.28680  Biso   1.000  H 
  C79      1.0000 0.95270  0.74340  0.62660  Biso   1.000  C 
  C80      1.0000 0.04730  0.25660  0.37340  Biso   1.000  C 
  H47      1.0000 0.96960  0.77800  0.59780  Biso   1.000  H 
  H48      1.0000 0.03040  0.22200  0.40220  Biso   1.000  H 
  C81      1.0000 0.85500  0.68750  0.59980  Biso   1.000  C 
  C82      1.0000 0.14500  0.31250  0.40020  Biso   1.000  C 
  C83      1.0000 0.83260  0.64820  0.64370  Biso   1.000  C 
  C84      1.0000 0.16740  0.35180  0.35630  Biso   1.000  C 
  H49      1.0000 0.76750  0.61690  0.62950  Biso   1.000  H 
  H50      1.0000 0.23250  0.38310  0.37050  Biso   1.000  H 
  C85      1.0000 0.89960  0.64890  0.71210  Biso   1.000  C 
  C86      1.0000 0.10040  0.35110  0.28790  Biso   1.000  C 
  H51      1.0000 0.87840  0.61770  0.74210  Biso   1.000  H 
  H52      1.0000 0.12160  0.38230  0.25790  Biso   1.000  H 
  C87      1.0000 0.78800  0.68410  0.52680  Biso   1.000  C 
  C88      1.0000 0.21200  0.31590  0.47320  Biso   1.000  C 
  C89      1.0000 0.73300  0.68360  0.46830  Biso   1.000  C 
  C90      1.0000 0.26700  0.31640  0.53170  Biso   1.000  C 
  C91      1.0000 0.63700  0.74830  0.29780  Biso   1.000  C 
  C92      1.0000 0.36300  0.25170  0.70220  Biso   1.000  C 
  H53      1.0000 0.66180  0.78170  0.27090  Biso   1.000  H 
  H54      1.0000 0.33820  0.21830  0.72910  Biso   1.000  H 
  C93      1.0000 0.70150  0.73770  0.35920  Biso   1.000  C 
  C94      1.0000 0.29850  0.26230  0.64080  Biso   1.000  C 
  H55      1.0000 0.76870  0.76270  0.37330  Biso   1.000  H 
  H56      1.0000 0.23130  0.23730  0.62670  Biso   1.000  H 
  C95      1.0000 0.66900  0.69100  0.40020  Biso   1.000  C 
  C96      1.0000 0.33100  0.30900  0.59980  Biso   1.000  C 
  C97      1.0000 0.57040  0.65350  0.37410  Biso   1.000  C 
  C98      1.0000 0.42960  0.34650  0.62590  Biso   1.000  C 
  H57      1.0000 0.54430  0.61850  0.39910  Biso   1.000  H 
  H58      1.0000 0.45570  0.38150  0.60090  Biso   1.000  H 
  C99      1.0000 0.51110  0.66730  0.31190  Biso   1.000  C 
  C100     1.0000 0.48890  0.33270  0.68810  Biso   1.000  C 
  H59      1.0000 0.44380  0.64130  0.29520  Biso   1.000  H 
  H60      1.0000 0.55620  0.35870  0.70480  Biso   1.000  H 
  C101     1.0000 0.58690  0.74200  0.07620  Biso   1.000  C 
  C102     1.0000 0.41310  0.25800  0.92380  Biso   1.000  C 
  H61      1.0000 0.56090  0.67620  0.04620  Biso   1.000  H 
  H62      1.0000 0.43910  0.32380  0.95380  Biso   1.000  H 
  C103     1.0000 0.65720  0.77610  0.04820  Biso   1.000  C 
  C104     1.0000 0.34280  0.22390  0.95180  Biso   1.000  C 
  H63      1.0000 0.67890  0.73460  0.00090  Biso   1.000  H 
  H64      1.0000 0.32110  0.26540  0.99910  Biso   1.000  H 
  C105     1.0000 0.69570  0.87260  0.09060  Biso   1.000  C 
  C106     1.0000 0.30430  0.12740  0.90940  Biso   1.000  C 
  C107     1.0000 0.66110  0.92900  0.15920  Biso   1.000  C 
  C108     1.0000 0.33890  0.07100  0.84080  Biso   1.000  C 
  H65      1.0000 0.68500  0.99520  0.18980  Biso   1.000  H 
  H66      1.0000 0.31500  0.00480  0.81020  Biso   1.000  H 
  C109     1.0000 0.59120  0.88730  0.18240  Biso   1.000  C 
  C110     1.0000 0.40880  0.11270  0.81760  Biso   1.000  C 
  H67      1.0000 0.56860  0.92680  0.23000  Biso   1.000  H 
  H68      1.0000 0.43140  0.07320  0.77000  Biso   1.000  H 
  C111     1.0000 0.77070  0.91050  0.06380  Biso   1.000  C 
  C112     1.0000 0.22930  0.08950  0.93620  Biso   1.000  C 
  C113     1.0000 0.83560  0.93820  0.04220  Biso   1.000  C 
  C114     1.0000 0.16440  0.06180  0.95780  Biso   1.000  C 
  C115     1.0000 0.91750  0.96870  0.01870  Biso   1.000  C 
  C116     1.0000 0.08250  0.03130  0.98130  Biso   1.000  C 
  C117     1.0000 0.97450  0.90450  0.97770  Biso   1.000  C 
  C118     1.0000 0.02550  0.09550  0.02230  Biso   1.000  C 
  H69      1.0000 0.95730  0.83900  0.96200  Biso   1.000  H 
  H70      1.0000 0.04270  0.16100  0.03800  Biso   1.000  H 
  C119     1.0000 0.94360  0.06450  0.04070  Biso   1.000  C 
  C120     1.0000 0.05640  0.93550  0.95930  Biso   1.000  C 
  H71      1.0000 0.90480  0.10900  0.06860  Biso   1.000  H 
  H72      1.0000 0.09520  0.89100  0.93140  Biso   1.000  H 
  N11      1.0000 0.33126  0.72530  0.07600  Biso   1.000  N 
  N12      1.0000 0.66874  0.27470  0.92400  Biso   1.000  N 
  N13      1.0000 0.54248  0.71500  0.27358  Biso   1.000  N 
  N14      1.0000 0.45752  0.28500  0.72642  Biso   1.000  N 
  N15      1.0000 0.55336  0.79460  0.14193  Biso   1.000  N 
  N16      1.0000 0.44664  0.20540  0.85807  Biso   1.000  N 
  N17      1.0000 0.40040  0.53520  0.09900  Biso   1.000  N 
  N18      1.0000 0.59960  0.46480  0.90100  Biso   1.000  N 
  N19      1.0000 0.36550  0.84370  0.29260  Biso   1.000  N 
  N20      1.0000 0.63450  0.15630  0.70740  Biso   1.000  N 
  O13      1.0000 0.45987  0.59143  0.08897  Biso   1.000  O 
  O14      1.0000 0.54013  0.40857  0.91103  Biso   1.000  O 
  O15      1.0000 0.39160  0.44950  0.05596  Biso   1.000  O 
  O16      1.0000 0.60840  0.55050  0.94404  Biso   1.000  O 
  O17      1.0000 0.35419  0.57220  0.15208  Biso   1.000  O 
  O18      1.0000 0.64581  0.42780  0.84792  Biso   1.000  O 
  O19      1.0000 0.43257  0.87229  0.26795  Biso   1.000  O 
  O20      1.0000 0.56743  0.12771  0.73205  Biso   1.000  O 
  O21      1.0000 0.33367  0.75510  0.25339  Biso   1.000  O 
  O22      1.0000 0.66633  0.24490  0.74661  Biso   1.000  O 
  O23      1.0000 0.33280  0.89790  0.35060  Biso   1.000  O 
  O24      1.0000 0.66720  0.10210  0.64940  Biso   1.000  O 
