data_image0
_cell_length_a       17.5448
_cell_length_b       13.5781
_cell_length_c       6.6642
_cell_angle_alpha    90
_cell_angle_beta     113.196
_cell_angle_gamma    90

_symmetry_space_group_name_H-M    "P 1"
_symmetry_int_tables_number       1

loop_
  _symmetry_equiv_pos_as_xyz
  'x, y, z'

loop_
  _atom_site_label
  _atom_site_occupancy
  _atom_site_fract_x
  _atom_site_fract_y
  _atom_site_fract_z
  _atom_site_thermal_displace_type
  _atom_site_B_iso_or_equiv
  _atom_site_type_symbol
  Al1      1.0000 0.00000  0.00000  0.00000  Biso   1.000  Al
  O1       1.0000 0.00000  0.93793  0.75000  Biso   1.000  O 
  Al2      1.0000 0.00000  0.00000  0.50000  Biso   1.000  Al
  O2       1.0000 0.90968  0.91923  0.33347  Biso   1.000  O 
  C1       1.0000 0.89141  0.88634  0.14800  Biso   1.000  C 
  O3       1.0000 0.92285  0.90346  0.01048  Biso   1.000  O 
  C2       1.0000 0.81407  0.81947  0.05969  Biso   1.000  C 
  C3       1.0000 0.81009  0.74623  0.91260  Biso   1.000  C 
  H1       1.0000 0.84900  0.74300  0.84000  Biso   1.000  H 
  C4       1.0000 0.74377  0.67603  0.84704  Biso   1.000  C 
  C5       1.0000 0.75041  0.59465  0.70052  Biso   1.000  C 
  O4       1.0000 0.76171  0.50569  0.75178  Biso   1.000  O 
  O5       1.0000 0.74454  0.62453  0.50716  Biso   1.000  O 
  H2       1.0000 0.69701  0.59108  0.39208  Biso   1.000  H 
  H3       1.0000 0.79648  0.60817  0.48829  Biso   1.000  H 
  C6       1.0000 0.68593  0.68053  0.94031  Biso   1.000  C 
  C7       1.0000 0.60859  0.61366  0.85200  Biso   1.000  C 
  O6       1.0000 0.59032  0.58077  0.66653  Biso   1.000  O 
  Al3      1.0000 0.50000  0.50000  0.50000  Biso   1.000  Al
  O7       1.0000 0.57715  0.40346  0.48952  Biso   1.000  O 
  C8       1.0000 0.60859  0.38634  0.35200  Biso   1.000  C 
  O8       1.0000 0.59032  0.41923  0.16653  Biso   1.000  O 
  Al4      1.0000 0.50000  0.50000  0.00000  Biso   1.000  Al
  O9       1.0000 0.42285  0.40346  0.01048  Biso   1.000  O 
  C9       1.0000 0.39141  0.38634  0.14800  Biso   1.000  C 
  O10      1.0000 0.40968  0.41923  0.33347  Biso   1.000  O 
  C10      1.0000 0.31407  0.31947  0.05969  Biso   1.000  C 
  C11      1.0000 0.31009  0.24623  0.91260  Biso   1.000  C 
  H4       1.0000 0.34900  0.24300  0.84000  Biso   1.000  H 
  C12      1.0000 0.24377  0.17603  0.84704  Biso   1.000  C 
  C13      1.0000 0.25041  0.09465  0.70052  Biso   1.000  C 
  O11      1.0000 0.26171  0.00569  0.75178  Biso   1.000  O 
  O12      1.0000 0.24454  0.12453  0.50716  Biso   1.000  O 
  H5       1.0000 0.19701  0.09108  0.39208  Biso   1.000  H 
  H6       1.0000 0.29648  0.10817  0.48829  Biso   1.000  H 
  C14      1.0000 0.18593  0.18053  0.94031  Biso   1.000  C 
  C15      1.0000 0.10859  0.11366  0.85200  Biso   1.000  C 
  O13      1.0000 0.09032  0.08077  0.66653  Biso   1.000  O 
  O14      1.0000 0.07715  0.09654  0.98952  Biso   1.000  O 
  C16      1.0000 0.18991  0.25377  0.08740  Biso   1.000  C 
  C17      1.0000 0.25623  0.32397  0.15296  Biso   1.000  C 
  C18      1.0000 0.24959  0.40535  0.29948  Biso   1.000  C 
  O15      1.0000 0.23829  0.49431  0.24822  Biso   1.000  O 
  O16      1.0000 0.25546  0.37547  0.49284  Biso   1.000  O 
  H7       1.0000 0.20352  0.39183  0.51171  Biso   1.000  H 
  H8       1.0000 0.30299  0.40892  0.60792  Biso   1.000  H 
  H9       1.0000 0.15100  0.25700  0.16000  Biso   1.000  H 
  O17      1.0000 0.40968  0.58077  0.83347  Biso   1.000  O 
  C19      1.0000 0.39141  0.61366  0.64800  Biso   1.000  C 
  O18      1.0000 0.42285  0.59654  0.51048  Biso   1.000  O 
  C20      1.0000 0.31407  0.68053  0.55969  Biso   1.000  C 
  C21      1.0000 0.31009  0.75377  0.41260  Biso   1.000  C 
  H10      1.0000 0.34900  0.75700  0.34000  Biso   1.000  H 
  C22      1.0000 0.24377  0.82397  0.34704  Biso   1.000  C 
  C23      1.0000 0.25041  0.90535  0.20052  Biso   1.000  C 
  O19      1.0000 0.26171  0.99431  0.25178  Biso   1.000  O 
  O20      1.0000 0.24454  0.87547  0.00716  Biso   1.000  O 
  H11      1.0000 0.19701  0.90892  0.89208  Biso   1.000  H 
  H12      1.0000 0.29648  0.89183  0.98829  Biso   1.000  H 
  C24      1.0000 0.18593  0.81947  0.44031  Biso   1.000  C 
  C25      1.0000 0.10859  0.88634  0.35200  Biso   1.000  C 
  O21      1.0000 0.09032  0.91923  0.16653  Biso   1.000  O 
  O22      1.0000 0.07715  0.90346  0.48952  Biso   1.000  O 
  C26      1.0000 0.18991  0.74623  0.58740  Biso   1.000  C 
  H13      1.0000 0.15100  0.74300  0.66000  Biso   1.000  H 
  C27      1.0000 0.25623  0.67603  0.65296  Biso   1.000  C 
  C28      1.0000 0.24959  0.59465  0.79948  Biso   1.000  C 
  O23      1.0000 0.23829  0.50569  0.74822  Biso   1.000  O 
  O24      1.0000 0.25546  0.62453  0.99284  Biso   1.000  O 
  H14      1.0000 0.20352  0.60817  0.01171  Biso   1.000  H 
  H15      1.0000 0.30299  0.59108  0.10792  Biso   1.000  H 
  O25      1.0000 0.50000  0.56207  0.25000  Biso   1.000  O 
  O26      1.0000 0.50000  0.43793  0.75000  Biso   1.000  O 
  O27      1.0000 0.57715  0.59654  0.98952  Biso   1.000  O 
  C29      1.0000 0.68593  0.31947  0.44031  Biso   1.000  C 
  C30      1.0000 0.68991  0.24623  0.58740  Biso   1.000  C 
  C31      1.0000 0.75623  0.17603  0.65296  Biso   1.000  C 
  C32      1.0000 0.81407  0.18053  0.55969  Biso   1.000  C 
  C33      1.0000 0.81009  0.25377  0.41260  Biso   1.000  C 
  H16      1.0000 0.84900  0.25700  0.34000  Biso   1.000  H 
  C34      1.0000 0.74377  0.32397  0.34704  Biso   1.000  C 
  C35      1.0000 0.75041  0.40535  0.20052  Biso   1.000  C 
  O28      1.0000 0.76171  0.49431  0.25178  Biso   1.000  O 
  O29      1.0000 0.74454  0.37547  0.00716  Biso   1.000  O 
  H17      1.0000 0.69701  0.40892  0.89208  Biso   1.000  H 
  H18      1.0000 0.79648  0.39183  0.98829  Biso   1.000  H 
  C36      1.0000 0.89141  0.11366  0.64800  Biso   1.000  C 
  O30      1.0000 0.90968  0.08077  0.83347  Biso   1.000  O 
  O31      1.0000 0.92285  0.09654  0.51048  Biso   1.000  O 
  C37      1.0000 0.74959  0.09465  0.79948  Biso   1.000  C 
  O32      1.0000 0.73829  0.00569  0.74822  Biso   1.000  O 
  O33      1.0000 0.75546  0.12453  0.99284  Biso   1.000  O 
  H19      1.0000 0.70352  0.10817  0.01171  Biso   1.000  H 
  H20      1.0000 0.80299  0.09108  0.10792  Biso   1.000  H 
  H21      1.0000 0.65100  0.24300  0.66000  Biso   1.000  H 
  C38      1.0000 0.68991  0.75377  0.08740  Biso   1.000  C 
  H22      1.0000 0.65100  0.75700  0.16000  Biso   1.000  H 
  C39      1.0000 0.75623  0.82397  0.15296  Biso   1.000  C 
  C40      1.0000 0.74959  0.90535  0.29948  Biso   1.000  C 
  O34      1.0000 0.73829  0.99431  0.24822  Biso   1.000  O 
  O35      1.0000 0.75546  0.87547  0.49284  Biso   1.000  O 
  H23      1.0000 0.80299  0.90892  0.60792  Biso   1.000  H 
  H24      1.0000 0.70352  0.89183  0.51171  Biso   1.000  H 
  O36      1.0000 0.00000  0.06207  0.25000  Biso   1.000  O 
