data_image0
_cell_length_a       10.4001
_cell_length_b       18.0008
_cell_length_c       10.701
_cell_angle_alpha    90
_cell_angle_beta     93.338
_cell_angle_gamma    90

_symmetry_space_group_name_H-M    "P 1"
_symmetry_int_tables_number       1

loop_
  _symmetry_equiv_pos_as_xyz
  'x, y, z'

loop_
  _atom_site_label
  _atom_site_occupancy
  _atom_site_fract_x
  _atom_site_fract_y
  _atom_site_fract_z
  _atom_site_thermal_displace_type
  _atom_site_B_iso_or_equiv
  _atom_site_type_symbol
  Si1      1.0000 0.18123  0.36390  0.48021  Biso   1.000  Si
  Si2      1.0000 0.81877  0.86390  0.01979  Biso   1.000  Si
  Si3      1.0000 0.81877  0.63610  0.51979  Biso   1.000  Si
  Si4      1.0000 0.18123  0.13610  0.98021  Biso   1.000  Si
  N1       1.0000 0.14719  0.45706  0.49796  Biso   1.000  N 
  N2       1.0000 0.85281  0.95706  0.00204  Biso   1.000  N 
  N3       1.0000 0.85281  0.54294  0.50204  Biso   1.000  N 
  N4       1.0000 0.14719  0.04294  0.99796  Biso   1.000  N 
  O1       1.0000 0.99157  0.46647  0.77487  Biso   1.000  O 
  O2       1.0000 0.00843  0.96647  0.72513  Biso   1.000  O 
  O3       1.0000 0.00843  0.53353  0.22513  Biso   1.000  O 
  O4       1.0000 0.99157  0.03353  0.27487  Biso   1.000  O 
  C1       1.0000 0.40909  0.49653  0.40058  Biso   1.000  C 
  C2       1.0000 0.59091  0.99653  0.09942  Biso   1.000  C 
  C3       1.0000 0.59091  0.50347  0.59942  Biso   1.000  C 
  C4       1.0000 0.40909  0.00347  0.90058  Biso   1.000  C 
  H1       1.0000 0.34840  0.49430  0.33330  Biso   1.000  H 
  H2       1.0000 0.65160  0.99430  0.16670  Biso   1.000  H 
  H3       1.0000 0.65160  0.50570  0.66670  Biso   1.000  H 
  H4       1.0000 0.34840  0.00570  0.83330  Biso   1.000  H 
  C5       1.0000 0.24276  0.62946  0.64804  Biso   1.000  C 
  C6       1.0000 0.75724  0.12946  0.85196  Biso   1.000  C 
  C7       1.0000 0.75724  0.37054  0.35196  Biso   1.000  C 
  C8       1.0000 0.24276  0.87054  0.14804  Biso   1.000  C 
  C9       1.0000 0.46082  0.50929  0.62046  Biso   1.000  C 
  C10      1.0000 0.53918  0.00929  0.87954  Biso   1.000  C 
  C11      1.0000 0.53918  0.49071  0.37954  Biso   1.000  C 
  C12      1.0000 0.46082  0.99071  0.12046  Biso   1.000  C 
  H5       1.0000 0.43520  0.51570  0.70160  Biso   1.000  H 
  H6       1.0000 0.56480  0.01570  0.79840  Biso   1.000  H 
  H7       1.0000 0.56480  0.48430  0.29840  Biso   1.000  H 
  H8       1.0000 0.43520  0.98430  0.20160  Biso   1.000  H 
  N5       1.0000 0.17661  0.56563  0.60494  Biso   1.000  N 
  N6       1.0000 0.82339  0.06563  0.89506  Biso   1.000  N 
  N7       1.0000 0.82339  0.43437  0.39506  Biso   1.000  N 
  N8       1.0000 0.17661  0.93437  0.10494  Biso   1.000  N 
  C13      1.0000 0.36863  0.50568  0.52127  Biso   1.000  C 
  C14      1.0000 0.63137  0.00568  0.97873  Biso   1.000  C 
  C15      1.0000 0.63137  0.49432  0.47873  Biso   1.000  C 
  C16      1.0000 0.36863  0.99432  0.02127  Biso   1.000  C 
  C17      1.0000 0.22696  0.51081  0.54224  Biso   1.000  C 
  C18      1.0000 0.77304  0.01081  0.95776  Biso   1.000  C 
  C19      1.0000 0.77304  0.48919  0.45776  Biso   1.000  C 
  C20      1.0000 0.22696  0.98919  0.04224  Biso   1.000  C 
  C21      1.0000 0.33401  0.66828  0.58328  Biso   1.000  C 
  C22      1.0000 0.66599  0.16828  0.91672  Biso   1.000  C 
  C23      1.0000 0.66599  0.33172  0.41672  Biso   1.000  C 
  C24      1.0000 0.33401  0.83172  0.08328  Biso   1.000  C 
  H9       1.0000 0.35730  0.65090  0.50590  Biso   1.000  H 
  H10      1.0000 0.64270  0.15090  0.99410  Biso   1.000  H 
  H11      1.0000 0.64270  0.34910  0.49410  Biso   1.000  H 
  H12      1.0000 0.35730  0.84910  0.00590  Biso   1.000  H 
  C25      1.0000 0.35561  0.76044  0.74638  Biso   1.000  C 
  C26      1.0000 0.64439  0.26044  0.75362  Biso   1.000  C 
  C27      1.0000 0.64439  0.23956  0.25362  Biso   1.000  C 
  C28      1.0000 0.35561  0.73956  0.24638  Biso   1.000  C 
  H13      1.0000 0.39470  0.80300  0.77980  Biso   1.000  H 
  H14      1.0000 0.60530  0.30300  0.72020  Biso   1.000  H 
  H15      1.0000 0.60530  0.19700  0.22020  Biso   1.000  H 
  H16      1.0000 0.39470  0.69700  0.27980  Biso   1.000  H 
  C29      1.0000 0.88253  0.42352  0.81028  Biso   1.000  C 
  C30      1.0000 0.11747  0.92352  0.68972  Biso   1.000  C 
  C31      1.0000 0.11747  0.57648  0.18972  Biso   1.000  C 
  C32      1.0000 0.88253  0.07648  0.31028  Biso   1.000  C 
  H17      1.0000 0.83790  0.40210  0.73680  Biso   1.000  H 
  H18      1.0000 0.16210  0.90210  0.76320  Biso   1.000  H 
  H19      1.0000 0.16210  0.59790  0.26320  Biso   1.000  H 
  H20      1.0000 0.83790  0.09790  0.23680  Biso   1.000  H 
  H21      1.0000 0.82260  0.45460  0.85270  Biso   1.000  H 
  H22      1.0000 0.17740  0.95460  0.64730  Biso   1.000  H 
  H23      1.0000 0.17740  0.54540  0.14730  Biso   1.000  H 
  H24      1.0000 0.82260  0.04540  0.35270  Biso   1.000  H 
  C33      1.0000 0.33057  0.33062  0.56950  Biso   1.000  C 
  C34      1.0000 0.66943  0.83062  0.93050  Biso   1.000  C 
  C35      1.0000 0.66943  0.66938  0.43050  Biso   1.000  C 
  C36      1.0000 0.33057  0.16938  0.06950  Biso   1.000  C 
  H25      1.0000 0.40500  0.34870  0.52990  Biso   1.000  H 
  H26      1.0000 0.59500  0.84870  0.97010  Biso   1.000  H 
  H27      1.0000 0.59500  0.65130  0.47010  Biso   1.000  H 
  H28      1.0000 0.40500  0.15130  0.02990  Biso   1.000  H 
  H29      1.0000 0.33160  0.27730  0.57030  Biso   1.000  H 
  H30      1.0000 0.66840  0.77730  0.92970  Biso   1.000  H 
  H31      1.0000 0.66840  0.72270  0.42970  Biso   1.000  H 
  H32      1.0000 0.33160  0.22270  0.07030  Biso   1.000  H 
  H33      1.0000 0.33170  0.34880  0.65390  Biso   1.000  H 
  H34      1.0000 0.66830  0.84880  0.84610  Biso   1.000  H 
  H35      1.0000 0.66830  0.65120  0.34610  Biso   1.000  H 
  H36      1.0000 0.33170  0.15120  0.15390  Biso   1.000  H 
  C37      1.0000 0.26204  0.72398  0.80952  Biso   1.000  C 
  C38      1.0000 0.73796  0.22398  0.69048  Biso   1.000  C 
  C39      1.0000 0.73796  0.27602  0.19048  Biso   1.000  C 
  C40      1.0000 0.26204  0.77602  0.30952  Biso   1.000  C 
  H37      1.0000 0.23580  0.74300  0.88470  Biso   1.000  H 
  H38      1.0000 0.76420  0.24300  0.61530  Biso   1.000  H 
  H39      1.0000 0.76420  0.25700  0.11530  Biso   1.000  H 
  H40      1.0000 0.23580  0.75700  0.38470  Biso   1.000  H 
  C41      1.0000 0.04460  0.31204  0.54432  Biso   1.000  C 
  C42      1.0000 0.95540  0.81204  0.95568  Biso   1.000  C 
  C43      1.0000 0.95540  0.68796  0.45568  Biso   1.000  C 
  C44      1.0000 0.04460  0.18796  0.04432  Biso   1.000  C 
  H41      1.0000 0.03490  0.32720  0.62930  Biso   1.000  H 
  H42      1.0000 0.96510  0.82720  0.87070  Biso   1.000  H 
  H43      1.0000 0.96510  0.67280  0.37070  Biso   1.000  H 
  H44      1.0000 0.03490  0.17280  0.12930  Biso   1.000  H 
  H45      1.0000 0.06180  0.25970  0.54200  Biso   1.000  H 
  H46      1.0000 0.93820  0.75970  0.95800  Biso   1.000  H 
  H47      1.0000 0.93820  0.74030  0.45800  Biso   1.000  H 
  H48      1.0000 0.06180  0.24030  0.04200  Biso   1.000  H 
  H49      1.0000 0.96670  0.32260  0.49490  Biso   1.000  H 
  H50      1.0000 0.03330  0.82260  0.00510  Biso   1.000  H 
  H51      1.0000 0.03330  0.67740  0.50510  Biso   1.000  H 
  H52      1.0000 0.96670  0.17740  0.99490  Biso   1.000  H 
  C45      1.0000 0.10497  0.44376  0.84850  Biso   1.000  C 
  C46      1.0000 0.89503  0.94376  0.65150  Biso   1.000  C 
  C47      1.0000 0.89503  0.55624  0.15150  Biso   1.000  C 
  C48      1.0000 0.10497  0.05624  0.34850  Biso   1.000  C 
  H53      1.0000 0.15230  0.48650  0.88170  Biso   1.000  H 
  H54      1.0000 0.84770  0.98650  0.61830  Biso   1.000  H 
  H55      1.0000 0.84770  0.51350  0.11830  Biso   1.000  H 
  H56      1.0000 0.15230  0.01350  0.38170  Biso   1.000  H 
  H57      1.0000 0.16120  0.41480  0.79800  Biso   1.000  H 
  H58      1.0000 0.83880  0.91480  0.70200  Biso   1.000  H 
  H59      1.0000 0.83880  0.58520  0.20200  Biso   1.000  H 
  H60      1.0000 0.16120  0.08520  0.29800  Biso   1.000  H 
  C49      1.0000 0.20643  0.65960  0.76096  Biso   1.000  C 
  C50      1.0000 0.79357  0.15960  0.73904  Biso   1.000  C 
  C51      1.0000 0.79357  0.34040  0.23904  Biso   1.000  C 
  C52      1.0000 0.20643  0.84040  0.26096  Biso   1.000  C 
  H61      1.0000 0.14360  0.63570  0.80450  Biso   1.000  H 
  H62      1.0000 0.85640  0.13570  0.69550  Biso   1.000  H 
  H63      1.0000 0.85640  0.36430  0.19550  Biso   1.000  H 
  H64      1.0000 0.14360  0.86430  0.30450  Biso   1.000  H 
  Li1      1.0000 0.01030  0.51067  0.61430  Biso   1.000  Li
  Li2      1.0000 0.98970  0.01067  0.88570  Biso   1.000  Li
  Li3      1.0000 0.98970  0.48933  0.38570  Biso   1.000  Li
  Li4      1.0000 0.01030  0.98933  0.11430  Biso   1.000  Li
  C53      1.0000 0.19140  0.33840  0.31190  Biso   1.000  C 
  C54      1.0000 0.80860  0.83840  0.18810  Biso   1.000  C 
  C55      1.0000 0.80860  0.66160  0.68810  Biso   1.000  C 
  C56      1.0000 0.19140  0.16160  0.81190  Biso   1.000  C 
  H65      1.0000 0.11500  0.35490  0.26530  Biso   1.000  H 
  H66      1.0000 0.88500  0.85490  0.23470  Biso   1.000  H 
  H67      1.0000 0.88500  0.64510  0.73470  Biso   1.000  H 
  H68      1.0000 0.11500  0.14510  0.76530  Biso   1.000  H 
  H69      1.0000 0.19890  0.28540  0.30450  Biso   1.000  H 
  H70      1.0000 0.80110  0.78540  0.19550  Biso   1.000  H 
  H71      1.0000 0.80110  0.71460  0.69550  Biso   1.000  H 
  H72      1.0000 0.19890  0.21460  0.80450  Biso   1.000  H 
  H73      1.0000 0.26540  0.36170  0.27930  Biso   1.000  H 
  H74      1.0000 0.73460  0.86170  0.22070  Biso   1.000  H 
  H75      1.0000 0.73460  0.63830  0.72070  Biso   1.000  H 
  H76      1.0000 0.26540  0.13830  0.77930  Biso   1.000  H 
  C57      1.0000 0.39059  0.73244  0.63299  Biso   1.000  C 
  C58      1.0000 0.60941  0.23244  0.86701  Biso   1.000  C 
  C59      1.0000 0.60941  0.26756  0.36701  Biso   1.000  C 
  C60      1.0000 0.39059  0.76756  0.13299  Biso   1.000  C 
  H77      1.0000 0.45280  0.75690  0.58940  Biso   1.000  H 
  H78      1.0000 0.54720  0.25690  0.91060  Biso   1.000  H 
  H79      1.0000 0.54720  0.24310  0.41060  Biso   1.000  H 
  H80      1.0000 0.45280  0.74310  0.08940  Biso   1.000  H 
  C61      1.0000 0.05710  0.39678  0.95290  Biso   1.000  C 
  C62      1.0000 0.94290  0.89678  0.54710  Biso   1.000  C 
  C63      1.0000 0.94290  0.60322  0.04710  Biso   1.000  C 
  C64      1.0000 0.05710  0.10322  0.45290  Biso   1.000  C 
  H81      1.0000 0.04020  0.42730  0.02470  Biso   1.000  H 
  H82      1.0000 0.95980  0.92730  0.47530  Biso   1.000  H 
  H83      1.0000 0.95980  0.57270  0.97530  Biso   1.000  H 
  H84      1.0000 0.04020  0.07270  0.52470  Biso   1.000  H 
  H85      1.0000 0.11930  0.35880  0.97850  Biso   1.000  H 
  H86      1.0000 0.88070  0.85880  0.52150  Biso   1.000  H 
  H87      1.0000 0.88070  0.64120  0.02150  Biso   1.000  H 
  H88      1.0000 0.11930  0.14120  0.47850  Biso   1.000  H 
  C65      1.0000 0.93480  0.36325  0.89680  Biso   1.000  C 
  C66      1.0000 0.06520  0.86325  0.60320  Biso   1.000  C 
  C67      1.0000 0.06520  0.63675  0.10320  Biso   1.000  C 
  C68      1.0000 0.93480  0.13675  0.39680  Biso   1.000  C 
  H89      1.0000 0.87550  0.35190  0.96090  Biso   1.000  H 
  H90      1.0000 0.12450  0.85190  0.53910  Biso   1.000  H 
  H91      1.0000 0.12450  0.64810  0.03910  Biso   1.000  H 
  H92      1.0000 0.87550  0.14810  0.46090  Biso   1.000  H 
  H93      1.0000 0.95230  0.31830  0.85090  Biso   1.000  H 
  H94      1.0000 0.04770  0.81830  0.64910  Biso   1.000  H 
  H95      1.0000 0.04770  0.68170  0.14910  Biso   1.000  H 
  H96      1.0000 0.95230  0.18170  0.35090  Biso   1.000  H 
