data_image0
_cell_length_a       7.984
_cell_length_b       8.729
_cell_length_c       16.898
_cell_angle_alpha    93.577
_cell_angle_beta     95.508
_cell_angle_gamma    103.03

_symmetry_space_group_name_H-M    "P 1"
_symmetry_int_tables_number       1

loop_
  _symmetry_equiv_pos_as_xyz
  'x, y, z'

loop_
  _atom_site_label
  _atom_site_occupancy
  _atom_site_fract_x
  _atom_site_fract_y
  _atom_site_fract_z
  _atom_site_thermal_displace_type
  _atom_site_B_iso_or_equiv
  _atom_site_type_symbol
  Zn1      1.0000 0.82609  0.74709  0.69778  Biso   1.000  Zn
  N1       1.0000 0.98980  0.69740  0.62265  Biso   1.000  N 
  C1       1.0000 0.11520  0.62370  0.63770  Biso   1.000  C 
  N2       1.0000 0.20160  0.61330  0.57500  Biso   1.000  N 
  C2       1.0000 0.12640  0.68200  0.51550  Biso   1.000  C 
  H1       1.0000 0.15850  0.69120  0.46300  Biso   1.000  H 
  C3       1.0000 0.99720  0.73440  0.54580  Biso   1.000  C 
  H2       1.0000 0.92280  0.78860  0.51770  Biso   1.000  H 
  C4       1.0000 0.34270  0.52980  0.57350  Biso   1.000  C 
  C5       1.0000 0.43150  0.54850  0.49960  Biso   1.000  C 
  H3       1.0000 0.34560  0.51290  0.45210  Biso   1.000  H 
  H4       1.0000 0.48680  0.66120  0.49660  Biso   1.000  H 
  C6       1.0000 0.56850  0.45150  0.50040  Biso   1.000  C 
  H5       1.0000 0.51320  0.33880  0.50340  Biso   1.000  H 
  H6       1.0000 0.65440  0.48710  0.54790  Biso   1.000  H 
  C7       1.0000 0.65730  0.47020  0.42650  Biso   1.000  C 
  N3       1.0000 0.79840  0.38670  0.42500  Biso   1.000  N 
  C8       1.0000 0.88480  0.37630  0.36230  Biso   1.000  C 
  H7       1.0000 0.85960  0.41680  0.31280  Biso   1.000  H 
  N4       1.0000 0.01020  0.30260  0.37735  Biso   1.000  N 
  Zn2      1.0000 0.17391  0.25291  0.30222  Biso   1.000  Zn
  O1       1.0000 0.34160  0.43990  0.27856  Biso   1.000  O 
  C9       1.0000 0.26900  0.54030  0.24850  Biso   1.000  C 
  O2       1.0000 0.11110  0.52160  0.23803  Biso   1.000  O 
  C10      1.0000 0.38510  0.68440  0.21990  Biso   1.000  C 
  H8       1.0000 0.40580  0.65760  0.16450  Biso   1.000  H 
  H9       1.0000 0.32190  0.76980  0.21860  Biso   1.000  H 
  C11      1.0000 0.55630  0.74700  0.26840  Biso   1.000  C 
  C12      1.0000 0.57450  0.84880  0.33700  Biso   1.000  C 
  C13      1.0000 0.73660  0.90510  0.37870  Biso   1.000  C 
  C14      1.0000 0.88090  0.86470  0.35400  Biso   1.000  C 
  C15      1.0000 0.86420  0.76410  0.28790  Biso   1.000  C 
  C16      1.0000 0.70390  0.70460  0.24570  Biso   1.000  C 
  H10      1.0000 0.69360  0.63270  0.20000  Biso   1.000  H 
  H11      1.0000 0.96320  0.73460  0.27050  Biso   1.000  H 
  H12      1.0000 0.99140  0.90690  0.38300  Biso   1.000  H 
  H13      1.0000 0.74850  0.97370  0.42580  Biso   1.000  H 
  C17      1.0000 0.42580  0.90520  0.36620  Biso   1.000  C 
  H14      1.0000 0.32100  0.81780  0.35610  Biso   1.000  H 
  H15      1.0000 0.45020  0.93110  0.42460  Biso   1.000  H 
  C18      1.0000 0.38740  0.04810  0.32820  Biso   1.000  C 
  O3       1.0000 0.44390  0.08560  0.26610  Biso   1.000  O 
  O4       1.0000 0.29040  0.11800  0.36539  Biso   1.000  O 
  N5       1.0000 0.03210  0.12290  0.20836  Biso   1.000  N 
  C19      1.0000 0.86320  0.09560  0.19270  Biso   1.000  C 
  H16      1.0000 0.79090  0.14030  0.22420  Biso   1.000  H 
  N6       1.0000 0.80580  0.99740  0.12734  Biso   1.000  N 
  C20      1.0000 0.94560  0.95910  0.09950  Biso   1.000  C 
  H17      1.0000 0.94550  0.89190  0.05310  Biso   1.000  H 
  C21      1.0000 0.08550  0.03460  0.15000  Biso   1.000  C 
  H18      1.0000 0.20140  0.02760  0.14590  Biso   1.000  H 
  C22      1.0000 0.62820  0.94680  0.09190  Biso   1.000  C 
  H19      1.0000 0.59940  0.83100  0.07920  Biso   1.000  H 
  H20      1.0000 0.55130  0.97140  0.13110  Biso   1.000  H 
  C23      1.0000 0.59460  0.02520  0.01700  Biso   1.000  C 
  H21      1.0000 0.62710  0.14130  0.02900  Biso   1.000  H 
  C24      1.0000 0.40540  0.97480  0.98300  Biso   1.000  C 
  H22      1.0000 0.37290  0.85870  0.97100  Biso   1.000  H 
  C25      1.0000 0.37180  0.05320  0.90810  Biso   1.000  C 
  H23      1.0000 0.44870  0.02860  0.86890  Biso   1.000  H 
  N7       1.0000 0.19420  0.00260  0.87266  Biso   1.000  N 
  C26      1.0000 0.13680  0.90440  0.80730  Biso   1.000  C 
  H24      1.0000 0.20910  0.85970  0.77580  Biso   1.000  H 
  N8       1.0000 0.96790  0.87710  0.79164  Biso   1.000  N 
  C27      1.0000 0.91450  0.96540  0.85000  Biso   1.000  C 
  H25      1.0000 0.79860  0.97240  0.85410  Biso   1.000  H 
  C28      1.0000 0.05440  0.04090  0.90050  Biso   1.000  C 
  H26      1.0000 0.05450  0.10810  0.94690  Biso   1.000  H 
  H27      1.0000 0.40060  0.16900  0.92080  Biso   1.000  H 
  H28      1.0000 0.33270  0.00300  0.02330  Biso   1.000  H 
  H29      1.0000 0.66730  0.99700  0.97670  Biso   1.000  H 
  C29      1.0000 0.00280  0.26560  0.45420  Biso   1.000  C 
  H30      1.0000 0.07720  0.21140  0.48230  Biso   1.000  H 
  C30      1.0000 0.87360  0.31800  0.48450  Biso   1.000  C 
  H31      1.0000 0.84150  0.30880  0.53700  Biso   1.000  H 
  H32      1.0000 0.57110  0.42980  0.37950  Biso   1.000  H 
  H33      1.0000 0.70510  0.58400  0.42220  Biso   1.000  H 
  H34      1.0000 0.29490  0.41600  0.57780  Biso   1.000  H 
  H35      1.0000 0.42890  0.57020  0.62050  Biso   1.000  H 
  H36      1.0000 0.14040  0.58320  0.68720  Biso   1.000  H 
  O5       1.0000 0.70960  0.88200  0.63461  Biso   1.000  O 
  C31      1.0000 0.61260  0.95190  0.67180  Biso   1.000  C 
  O6       1.0000 0.55610  0.91440  0.73390  Biso   1.000  O 
  C32      1.0000 0.57420  0.09480  0.63380  Biso   1.000  C 
  H37      1.0000 0.67900  0.18220  0.64390  Biso   1.000  H 
  H38      1.0000 0.54980  0.06890  0.57540  Biso   1.000  H 
  C33      1.0000 0.42550  0.15120  0.66300  Biso   1.000  C 
  C34      1.0000 0.26340  0.09490  0.62130  Biso   1.000  C 
  H39      1.0000 0.25150  0.02630  0.57420  Biso   1.000  H 
  C35      1.0000 0.11910  0.13530  0.64600  Biso   1.000  C 
  H40      1.0000 0.00860  0.09310  0.61700  Biso   1.000  H 
  C36      1.0000 0.13580  0.23590  0.71210  Biso   1.000  C 
  H41      1.0000 0.03680  0.26540  0.72950  Biso   1.000  H 
  C37      1.0000 0.29610  0.29540  0.75430  Biso   1.000  C 
  C38      1.0000 0.44370  0.25300  0.73160  Biso   1.000  C 
  C39      1.0000 0.61490  0.31560  0.78010  Biso   1.000  C 
  H42      1.0000 0.59420  0.34240  0.83550  Biso   1.000  H 
  H43      1.0000 0.67810  0.23020  0.78140  Biso   1.000  H 
  C40      1.0000 0.73100  0.45970  0.75150  Biso   1.000  C 
  O7       1.0000 0.88890  0.47840  0.76197  Biso   1.000  O 
  O8       1.0000 0.65840  0.56010  0.72144  Biso   1.000  O 
  H44      1.0000 0.30640  0.36730  0.80000  Biso   1.000  H 
