data_image0
_cell_length_a       17.8172
_cell_length_b       17.8172
_cell_length_c       26.8243
_cell_angle_alpha    90
_cell_angle_beta     90
_cell_angle_gamma    90

_symmetry_space_group_name_H-M    "P 1"
_symmetry_int_tables_number       1

loop_
  _symmetry_equiv_pos_as_xyz
  'x, y, z'

loop_
  _atom_site_label
  _atom_site_occupancy
  _atom_site_fract_x
  _atom_site_fract_y
  _atom_site_fract_z
  _atom_site_thermal_displace_type
  _atom_site_B_iso_or_equiv
  _atom_site_type_symbol
  Zn1      1.0000 0.74392  0.50000  0.25000  Biso   1.000  Zn
  O1       1.0000 0.82400  0.41550  0.25320  Biso   1.000  O 
  C1       1.0000 0.86780  0.38210  0.22630  Biso   1.000  C 
  O2       1.0000 0.85170  0.34410  0.18770  Biso   1.000  O 
  Zn2      1.0000 0.74339  0.33580  0.17439  Biso   1.000  Zn
  O3       1.0000 0.74750  0.25250  0.12500  Biso   1.000  O 
  Zn3      1.0000 0.66420  0.25661  0.07561  Biso   1.000  Zn
  O4       1.0000 0.58720  0.29200  0.12170  Biso   1.000  O 
  C2       1.0000 0.52020  0.28080  0.11320  Biso   1.000  C 
  O5       1.0000 0.49200  0.24960  0.07665  Biso   1.000  O 
  Zn4      1.0000 0.50000  0.25608  0.00000  Biso   1.000  Zn
  O6       1.0000 0.41550  0.17600  0.00320  Biso   1.000  O 
  C3       1.0000 0.38210  0.13220  0.97630  Biso   1.000  C 
  O7       1.0000 0.34410  0.14830  0.93770  Biso   1.000  O 
  Zn5      1.0000 0.33580  0.25661  0.92439  Biso   1.000  Zn
  O8       1.0000 0.29940  0.31490  0.98108  Biso   1.000  O 
  C4       1.0000 0.35290  0.34690  0.00530  Biso   1.000  C 
  C5       1.0000 0.33140  0.39570  0.04650  Biso   1.000  C 
  C6       1.0000 0.25880  0.40520  0.06050  Biso   1.000  C 
  H1       1.0000 0.22030  0.38030  0.04230  Biso   1.000  H 
  C7       1.0000 0.23930  0.45090  0.10120  Biso   1.000  C 
  H2       1.0000 0.18810  0.45620  0.11060  Biso   1.000  H 
  C8       1.0000 0.29430  0.48790  0.12740  Biso   1.000  C 
  C9       1.0000 0.36740  0.47750  0.11350  Biso   1.000  C 
  C10      1.0000 0.38600  0.43300  0.07330  Biso   1.000  C 
  H3       1.0000 0.43720  0.42780  0.06390  Biso   1.000  H 
  H4       1.0000 0.40620  0.50150  0.13190  Biso   1.000  H 
  C11      1.0000 0.27320  0.53810  0.17040  Biso   1.000  C 
  N1       1.0000 0.20090  0.54800  0.18100  Biso   1.000  N 
  C12      1.0000 0.18000  0.59100  0.22210  Biso   1.000  C 
  C13      1.0000 0.10010  0.60190  0.23360  Biso   1.000  C 
  C14      1.0000 0.04310  0.57750  0.20220  Biso   1.000  C 
  H5       1.0000 0.05570  0.55600  0.17090  Biso   1.000  H 
  C15      1.0000 0.96930  0.58390  0.21530  Biso   1.000  C 
  H6       1.0000 0.93120  0.56690  0.19330  Biso   1.000  H 
  C16      1.0000 0.95050  0.61450  0.25970  Biso   1.000  C 
  C17      1.0000 0.86780  0.61790  0.27370  Biso   1.000  C 
  O9       1.0000 0.82400  0.58450  0.24680  Biso   1.000  O 
  O10      1.0000 0.85170  0.65590  0.31230  Biso   1.000  O 
  Zn6      1.0000 0.74339  0.66420  0.32561  Biso   1.000  Zn
  O11      1.0000 0.70800  0.58720  0.37170  Biso   1.000  O 
  C18      1.0000 0.71920  0.52020  0.36320  Biso   1.000  C 
  O12      1.0000 0.75040  0.49200  0.32665  Biso   1.000  O 
  C19      1.0000 0.69370  0.46600  0.40290  Biso   1.000  C 
  C20      1.0000 0.64010  0.48840  0.43770  Biso   1.000  C 
  C21      1.0000 0.61240  0.43780  0.47230  Biso   1.000  C 
  H7       1.0000 0.57470  0.45300  0.49530  Biso   1.000  H 
  C22      1.0000 0.64020  0.36440  0.47340  Biso   1.000  C 
  C23      1.0000 0.69620  0.34350  0.43810  Biso   1.000  C 
  H8       1.0000 0.71640  0.29420  0.43830  Biso   1.000  H 
  C24      1.0000 0.72050  0.39490  0.40390  Biso   1.000  C 
  H9       1.0000 0.75730  0.38040  0.38010  Biso   1.000  H 
  C25      1.0000 0.60970  0.30700  0.50890  Biso   1.000  C 
  C26      1.0000 0.56910  0.32810  0.54950  Biso   1.000  C 
  H10      1.0000 0.56210  0.37970  0.55700  Biso   1.000  H 
  C27      1.0000 0.53810  0.27320  0.57960  Biso   1.000  C 
  N2       1.0000 0.54800  0.20090  0.56900  Biso   1.000  N 
  C28      1.0000 0.59100  0.18000  0.52790  Biso   1.000  C 
  C29      1.0000 0.62160  0.23280  0.49900  Biso   1.000  C 
  H11      1.0000 0.65190  0.21860  0.47140  Biso   1.000  H 
  C30      1.0000 0.60190  0.10010  0.51640  Biso   1.000  C 
  C31      1.0000 0.63420  0.07880  0.47190  Biso   1.000  C 
  H12      1.0000 0.65100  0.11650  0.44940  Biso   1.000  H 
  C32      1.0000 0.64270  0.00390  0.45890  Biso   1.000  C 
  C33      1.0000 0.61450  0.95050  0.49030  Biso   1.000  C 
  C34      1.0000 0.61790  0.86780  0.47630  Biso   1.000  C 
  O13      1.0000 0.65590  0.85170  0.43770  Biso   1.000  O 
  Zn7      1.0000 0.66420  0.74339  0.42439  Biso   1.000  Zn
  O14      1.0000 0.58720  0.70800  0.37830  Biso   1.000  O 
  C35      1.0000 0.52020  0.71920  0.38680  Biso   1.000  C 
  O15      1.0000 0.49200  0.75040  0.42335  Biso   1.000  O 
  Zn8      1.0000 0.50000  0.74392  0.50000  Biso   1.000  Zn
  O16      1.0000 0.41550  0.82400  0.49680  Biso   1.000  O 
  C36      1.0000 0.38210  0.86780  0.52370  Biso   1.000  C 
  O17      1.0000 0.34410  0.85170  0.56230  Biso   1.000  O 
  Zn9      1.0000 0.33580  0.74339  0.57561  Biso   1.000  Zn
  O18      1.0000 0.25250  0.74750  0.62500  Biso   1.000  O 
  Zn10     1.0000 0.25661  0.66420  0.67439  Biso   1.000  Zn
  O19      1.0000 0.29200  0.58720  0.62830  Biso   1.000  O 
  C37      1.0000 0.28080  0.52020  0.63680  Biso   1.000  C 
  O20      1.0000 0.24960  0.49200  0.67335  Biso   1.000  O 
  Zn11     1.0000 0.25608  0.50000  0.75000  Biso   1.000  Zn
  O21      1.0000 0.17600  0.41550  0.74680  Biso   1.000  O 
  C38      1.0000 0.13220  0.38210  0.77370  Biso   1.000  C 
  O22      1.0000 0.14830  0.34410  0.81230  Biso   1.000  O 
  Zn12     1.0000 0.25661  0.33580  0.82561  Biso   1.000  Zn
  O23      1.0000 0.25250  0.25250  0.87500  Biso   1.000  O 
  O24      1.0000 0.31490  0.29940  0.76892  Biso   1.000  O 
  C39      1.0000 0.34690  0.35290  0.74470  Biso   1.000  C 
  C40      1.0000 0.39570  0.33140  0.70350  Biso   1.000  C 
  C41      1.0000 0.40520  0.25880  0.68950  Biso   1.000  C 
  H13      1.0000 0.38030  0.22030  0.70770  Biso   1.000  H 
  C42      1.0000 0.45090  0.23930  0.64880  Biso   1.000  C 
  H14      1.0000 0.45620  0.18810  0.63940  Biso   1.000  H 
  C43      1.0000 0.48790  0.29430  0.62260  Biso   1.000  C 
  C44      1.0000 0.47750  0.36740  0.63650  Biso   1.000  C 
  C45      1.0000 0.43300  0.38600  0.67670  Biso   1.000  C 
  H15      1.0000 0.42780  0.43720  0.68610  Biso   1.000  H 
  H16      1.0000 0.50150  0.40620  0.61810  Biso   1.000  H 
  O25      1.0000 0.34120  0.42020  0.75612  Biso   1.000  O 
  O26      1.0000 0.29200  0.41280  0.87170  Biso   1.000  O 
  C46      1.0000 0.28080  0.47980  0.86320  Biso   1.000  C 
  O27      1.0000 0.24960  0.50800  0.82665  Biso   1.000  O 
  C47      1.0000 0.30630  0.53400  0.90290  Biso   1.000  C 
  C48      1.0000 0.35990  0.51160  0.93770  Biso   1.000  C 
  H17      1.0000 0.37750  0.46130  0.93760  Biso   1.000  H 
  C49      1.0000 0.38760  0.56220  0.97230  Biso   1.000  C 
  H18      1.0000 0.42530  0.54700  0.99530  Biso   1.000  H 
  C50      1.0000 0.35980  0.63560  0.97340  Biso   1.000  C 
  C51      1.0000 0.30380  0.65650  0.93810  Biso   1.000  C 
  C52      1.0000 0.27950  0.60510  0.90390  Biso   1.000  C 
  H19      1.0000 0.24270  0.61960  0.88010  Biso   1.000  H 
  H20      1.0000 0.28360  0.70580  0.93830  Biso   1.000  H 
  C53      1.0000 0.39030  0.69300  0.00890  Biso   1.000  C 
  C54      1.0000 0.43090  0.67190  0.04950  Biso   1.000  C 
  H21      1.0000 0.43790  0.62030  0.05700  Biso   1.000  H 
  C55      1.0000 0.46190  0.72680  0.07960  Biso   1.000  C 
  N3       1.0000 0.45200  0.79910  0.06900  Biso   1.000  N 
  C56      1.0000 0.40900  0.82000  0.02790  Biso   1.000  C 
  C57      1.0000 0.39810  0.89990  0.01640  Biso   1.000  C 
  C58      1.0000 0.42250  0.95690  0.04780  Biso   1.000  C 
  H22      1.0000 0.44400  0.94430  0.07910  Biso   1.000  H 
  C59      1.0000 0.41610  0.03070  0.03470  Biso   1.000  C 
  H23      1.0000 0.43310  0.06880  0.05670  Biso   1.000  H 
  C60      1.0000 0.38550  0.04950  0.99030  Biso   1.000  C 
  C61      1.0000 0.35730  0.99610  0.95890  Biso   1.000  C 
  C62      1.0000 0.36580  0.92120  0.97190  Biso   1.000  C 
  H24      1.0000 0.34900  0.88350  0.94940  Biso   1.000  H 
  H25      1.0000 0.33240  0.01000  0.92900  Biso   1.000  H 
  C63      1.0000 0.37840  0.76720  0.99900  Biso   1.000  C 
  H26      1.0000 0.34810  0.78140  0.97140  Biso   1.000  H 
  C64      1.0000 0.51210  0.70570  0.12260  Biso   1.000  C 
  C65      1.0000 0.52250  0.63260  0.13650  Biso   1.000  C 
  H27      1.0000 0.49850  0.59380  0.11810  Biso   1.000  H 
  C66      1.0000 0.56700  0.61400  0.17670  Biso   1.000  C 
  H28      1.0000 0.57220  0.56280  0.18610  Biso   1.000  H 
  C67      1.0000 0.60430  0.66860  0.20350  Biso   1.000  C 
  C68      1.0000 0.59480  0.74120  0.18950  Biso   1.000  C 
  C69      1.0000 0.54910  0.76070  0.14880  Biso   1.000  C 
  H29      1.0000 0.54380  0.81190  0.13940  Biso   1.000  H 
  H30      1.0000 0.61970  0.77970  0.20770  Biso   1.000  H 
  C70      1.0000 0.65310  0.64710  0.24470  Biso   1.000  C 
  O28      1.0000 0.65880  0.57980  0.25612  Biso   1.000  O 
  O29      1.0000 0.68510  0.70060  0.26892  Biso   1.000  O 
  C71      1.0000 0.04950  0.38550  0.75970  Biso   1.000  C 
  C72      1.0000 0.03070  0.41610  0.71530  Biso   1.000  C 
  H31      1.0000 0.06880  0.43310  0.69330  Biso   1.000  H 
  C73      1.0000 0.95690  0.42250  0.70220  Biso   1.000  C 
  H32      1.0000 0.94430  0.44400  0.67090  Biso   1.000  H 
  C74      1.0000 0.89990  0.39810  0.73360  Biso   1.000  C 
  C75      1.0000 0.92120  0.36580  0.77810  Biso   1.000  C 
  H33      1.0000 0.88350  0.34900  0.80060  Biso   1.000  H 
  C76      1.0000 0.99610  0.35730  0.79110  Biso   1.000  C 
  H34      1.0000 0.01000  0.33240  0.82100  Biso   1.000  H 
  C77      1.0000 0.82000  0.40900  0.72210  Biso   1.000  C 
  C78      1.0000 0.76720  0.37840  0.75100  Biso   1.000  C 
  C79      1.0000 0.69300  0.39030  0.74110  Biso   1.000  C 
  C80      1.0000 0.67190  0.43090  0.70050  Biso   1.000  C 
  H35      1.0000 0.62030  0.43790  0.69300  Biso   1.000  H 
  C81      1.0000 0.72680  0.46190  0.67040  Biso   1.000  C 
  N4       1.0000 0.79910  0.45200  0.68100  Biso   1.000  N 
  C82      1.0000 0.70570  0.51210  0.62740  Biso   1.000  C 
  C83      1.0000 0.63260  0.52250  0.61350  Biso   1.000  C 
  H36      1.0000 0.59380  0.49850  0.63190  Biso   1.000  H 
  C84      1.0000 0.61400  0.56700  0.57330  Biso   1.000  C 
  H37      1.0000 0.56280  0.57220  0.56390  Biso   1.000  H 
  C85      1.0000 0.66860  0.60430  0.54650  Biso   1.000  C 
  C86      1.0000 0.74120  0.59480  0.56050  Biso   1.000  C 
  C87      1.0000 0.76070  0.54910  0.60120  Biso   1.000  C 
  H38      1.0000 0.81190  0.54380  0.61060  Biso   1.000  H 
  H39      1.0000 0.77970  0.61970  0.54230  Biso   1.000  H 
  C88      1.0000 0.64710  0.65310  0.50530  Biso   1.000  C 
  O30      1.0000 0.57980  0.65880  0.49388  Biso   1.000  O 
  O31      1.0000 0.70060  0.68510  0.48108  Biso   1.000  O 
  C89      1.0000 0.63560  0.35980  0.77660  Biso   1.000  C 
  C90      1.0000 0.56220  0.38760  0.77770  Biso   1.000  C 
  H40      1.0000 0.54700  0.42530  0.75470  Biso   1.000  H 
  C91      1.0000 0.51160  0.35990  0.81230  Biso   1.000  C 
  H41      1.0000 0.46130  0.37750  0.81240  Biso   1.000  H 
  C92      1.0000 0.53400  0.30630  0.84710  Biso   1.000  C 
  C93      1.0000 0.47980  0.28080  0.88680  Biso   1.000  C 
  O32      1.0000 0.41280  0.29200  0.87830  Biso   1.000  O 
  O33      1.0000 0.50800  0.24960  0.92335  Biso   1.000  O 
  C94      1.0000 0.60510  0.27950  0.84610  Biso   1.000  C 
  H42      1.0000 0.61960  0.24270  0.86990  Biso   1.000  H 
  C95      1.0000 0.65650  0.30380  0.81190  Biso   1.000  C 
  H43      1.0000 0.70580  0.28360  0.81170  Biso   1.000  H 
  H44      1.0000 0.78140  0.34810  0.77860  Biso   1.000  H 
  O34      1.0000 0.17600  0.58450  0.75320  Biso   1.000  O 
  C96      1.0000 0.13220  0.61790  0.72630  Biso   1.000  C 
  O35      1.0000 0.14830  0.65590  0.68770  Biso   1.000  O 
  C97      1.0000 0.04950  0.61450  0.74030  Biso   1.000  C 
  C98      1.0000 0.03070  0.58390  0.78470  Biso   1.000  C 
  H45      1.0000 0.06880  0.56690  0.80670  Biso   1.000  H 
  C99      1.0000 0.95690  0.57750  0.79780  Biso   1.000  C 
  H46      1.0000 0.94430  0.55600  0.82910  Biso   1.000  H 
  C100     1.0000 0.89990  0.60190  0.76640  Biso   1.000  C 
  C101     1.0000 0.92120  0.63420  0.72190  Biso   1.000  C 
  H47      1.0000 0.88350  0.65100  0.69940  Biso   1.000  H 
  C102     1.0000 0.99610  0.64270  0.70890  Biso   1.000  C 
  H48      1.0000 0.01000  0.66760  0.67900  Biso   1.000  H 
  C103     1.0000 0.82000  0.59100  0.77790  Biso   1.000  C 
  C104     1.0000 0.76720  0.62160  0.74900  Biso   1.000  C 
  H49      1.0000 0.78140  0.65190  0.72140  Biso   1.000  H 
  C105     1.0000 0.69300  0.60970  0.75890  Biso   1.000  C 
  C106     1.0000 0.63560  0.64020  0.72340  Biso   1.000  C 
  C107     1.0000 0.56220  0.61240  0.72230  Biso   1.000  C 
  H50      1.0000 0.54700  0.57470  0.74530  Biso   1.000  H 
  C108     1.0000 0.51160  0.64010  0.68770  Biso   1.000  C 
  H51      1.0000 0.46130  0.62250  0.68760  Biso   1.000  H 
  C109     1.0000 0.53400  0.69370  0.65290  Biso   1.000  C 
  C110     1.0000 0.47980  0.71920  0.61320  Biso   1.000  C 
  O36      1.0000 0.41280  0.70800  0.62170  Biso   1.000  O 
  O37      1.0000 0.50800  0.75040  0.57665  Biso   1.000  O 
  C111     1.0000 0.60510  0.72050  0.65390  Biso   1.000  C 
  H52      1.0000 0.61960  0.75730  0.63010  Biso   1.000  H 
  C112     1.0000 0.65650  0.69620  0.68810  Biso   1.000  C 
  H53      1.0000 0.70580  0.71640  0.68830  Biso   1.000  H 
  C113     1.0000 0.67190  0.56910  0.79950  Biso   1.000  C 
  H54      1.0000 0.62030  0.56210  0.80700  Biso   1.000  H 
  C114     1.0000 0.72680  0.53810  0.82960  Biso   1.000  C 
  N5       1.0000 0.79910  0.54800  0.81900  Biso   1.000  N 
  C115     1.0000 0.70570  0.48790  0.87260  Biso   1.000  C 
  C116     1.0000 0.63260  0.47750  0.88650  Biso   1.000  C 
  C117     1.0000 0.61400  0.43300  0.92670  Biso   1.000  C 
  H55      1.0000 0.56280  0.42780  0.93610  Biso   1.000  H 
  C118     1.0000 0.66860  0.39570  0.95350  Biso   1.000  C 
  C119     1.0000 0.74120  0.40520  0.93950  Biso   1.000  C 
  H56      1.0000 0.77970  0.38030  0.95770  Biso   1.000  H 
  C120     1.0000 0.76070  0.45090  0.89880  Biso   1.000  C 
  H57      1.0000 0.81190  0.45620  0.88940  Biso   1.000  H 
  C121     1.0000 0.64710  0.34690  0.99470  Biso   1.000  C 
  O38      1.0000 0.70060  0.31490  0.01892  Biso   1.000  O 
  O39      1.0000 0.57980  0.34120  0.00612  Biso   1.000  O 
  H58      1.0000 0.59380  0.50150  0.86810  Biso   1.000  H 
  O40      1.0000 0.34120  0.57980  0.74388  Biso   1.000  O 
  C122     1.0000 0.34690  0.64710  0.75530  Biso   1.000  C 
  C123     1.0000 0.39570  0.66860  0.79650  Biso   1.000  C 
  C124     1.0000 0.43300  0.61400  0.82330  Biso   1.000  C 
  H59      1.0000 0.42780  0.56280  0.81390  Biso   1.000  H 
  C125     1.0000 0.47750  0.63260  0.86350  Biso   1.000  C 
  H60      1.0000 0.50150  0.59380  0.88190  Biso   1.000  H 
  C126     1.0000 0.48790  0.70570  0.87740  Biso   1.000  C 
  C127     1.0000 0.53810  0.72680  0.92040  Biso   1.000  C 
  C128     1.0000 0.56910  0.67190  0.95050  Biso   1.000  C 
  H61      1.0000 0.56210  0.62030  0.94300  Biso   1.000  H 
  C129     1.0000 0.60970  0.69300  0.99110  Biso   1.000  C 
  C130     1.0000 0.64020  0.63560  0.02660  Biso   1.000  C 
  C131     1.0000 0.61240  0.56220  0.02770  Biso   1.000  C 
  H62      1.0000 0.57470  0.54700  0.00470  Biso   1.000  H 
  C132     1.0000 0.64010  0.51160  0.06230  Biso   1.000  C 
  H63      1.0000 0.62250  0.46130  0.06240  Biso   1.000  H 
  C133     1.0000 0.69370  0.53400  0.09710  Biso   1.000  C 
  C134     1.0000 0.71920  0.47980  0.13680  Biso   1.000  C 
  O41      1.0000 0.70800  0.41280  0.12830  Biso   1.000  O 
  O42      1.0000 0.75040  0.50800  0.17335  Biso   1.000  O 
  C135     1.0000 0.72050  0.60510  0.09610  Biso   1.000  C 
  H64      1.0000 0.75730  0.61960  0.11990  Biso   1.000  H 
  C136     1.0000 0.69620  0.65650  0.06190  Biso   1.000  C 
  H65      1.0000 0.71640  0.70580  0.06170  Biso   1.000  H 
  C137     1.0000 0.62160  0.76720  0.00100  Biso   1.000  C 
  H66      1.0000 0.65190  0.78140  0.02860  Biso   1.000  H 
  C138     1.0000 0.59100  0.82000  0.97210  Biso   1.000  C 
  C139     1.0000 0.60190  0.89990  0.98360  Biso   1.000  C 
  C140     1.0000 0.57750  0.95690  0.95220  Biso   1.000  C 
  H67      1.0000 0.55600  0.94430  0.92090  Biso   1.000  H 
  C141     1.0000 0.58390  0.03070  0.96530  Biso   1.000  C 
  H68      1.0000 0.56690  0.06880  0.94330  Biso   1.000  H 
  C142     1.0000 0.61450  0.04950  0.00970  Biso   1.000  C 
  C143     1.0000 0.61790  0.13220  0.02370  Biso   1.000  C 
  O43      1.0000 0.65590  0.14830  0.06230  Biso   1.000  O 
  O44      1.0000 0.58450  0.17600  0.99680  Biso   1.000  O 
  C144     1.0000 0.64270  0.99610  0.04110  Biso   1.000  C 
  C145     1.0000 0.63420  0.92120  0.02810  Biso   1.000  C 
  H69      1.0000 0.65100  0.88350  0.05060  Biso   1.000  H 
  H70      1.0000 0.66760  0.01000  0.07100  Biso   1.000  H 
  N6       1.0000 0.54800  0.79910  0.93100  Biso   1.000  N 
  C146     1.0000 0.45090  0.76070  0.85120  Biso   1.000  C 
  H71      1.0000 0.45620  0.81190  0.86060  Biso   1.000  H 
  C147     1.0000 0.40520  0.74120  0.81050  Biso   1.000  C 
  H72      1.0000 0.38030  0.77970  0.79230  Biso   1.000  H 
  O45      1.0000 0.31490  0.70060  0.73108  Biso   1.000  O 
  C148     1.0000 0.30630  0.46600  0.59710  Biso   1.000  C 
  C149     1.0000 0.35990  0.48840  0.56230  Biso   1.000  C 
  C150     1.0000 0.38760  0.43780  0.52770  Biso   1.000  C 
  H73      1.0000 0.42530  0.45300  0.50470  Biso   1.000  H 
  C151     1.0000 0.35980  0.36440  0.52660  Biso   1.000  C 
  C152     1.0000 0.30380  0.34350  0.56190  Biso   1.000  C 
  C153     1.0000 0.27950  0.39490  0.59610  Biso   1.000  C 
  H74      1.0000 0.24270  0.38040  0.61990  Biso   1.000  H 
  H75      1.0000 0.28360  0.29420  0.56170  Biso   1.000  H 
  C154     1.0000 0.39030  0.30700  0.49110  Biso   1.000  C 
  C155     1.0000 0.43090  0.32810  0.45050  Biso   1.000  C 
  H76      1.0000 0.43790  0.37970  0.44300  Biso   1.000  H 
  C156     1.0000 0.46190  0.27320  0.42040  Biso   1.000  C 
  N7       1.0000 0.45200  0.20090  0.43100  Biso   1.000  N 
  C157     1.0000 0.40900  0.18000  0.47210  Biso   1.000  C 
  C158     1.0000 0.39810  0.10010  0.48360  Biso   1.000  C 
  C159     1.0000 0.42250  0.04310  0.45220  Biso   1.000  C 
  H77      1.0000 0.44400  0.05570  0.42090  Biso   1.000  H 
  C160     1.0000 0.41610  0.96930  0.46530  Biso   1.000  C 
  H78      1.0000 0.43310  0.93120  0.44330  Biso   1.000  H 
  C161     1.0000 0.38550  0.95050  0.50970  Biso   1.000  C 
  C162     1.0000 0.35730  0.00390  0.54110  Biso   1.000  C 
  C163     1.0000 0.36580  0.07880  0.52810  Biso   1.000  C 
  H79      1.0000 0.34900  0.11650  0.55060  Biso   1.000  H 
  H80      1.0000 0.33240  0.99000  0.57100  Biso   1.000  H 
  C164     1.0000 0.37840  0.23280  0.50100  Biso   1.000  C 
  H81      1.0000 0.34810  0.21860  0.52860  Biso   1.000  H 
  C165     1.0000 0.51210  0.29430  0.37740  Biso   1.000  C 
  C166     1.0000 0.52250  0.36740  0.36350  Biso   1.000  C 
  H82      1.0000 0.49850  0.40620  0.38190  Biso   1.000  H 
  C167     1.0000 0.56700  0.38600  0.32330  Biso   1.000  C 
  H83      1.0000 0.57220  0.43720  0.31390  Biso   1.000  H 
  C168     1.0000 0.60430  0.33140  0.29650  Biso   1.000  C 
  C169     1.0000 0.59480  0.25880  0.31050  Biso   1.000  C 
  H84      1.0000 0.61970  0.22030  0.29230  Biso   1.000  H 
  C170     1.0000 0.54910  0.23930  0.35120  Biso   1.000  C 
  H85      1.0000 0.54380  0.18810  0.36060  Biso   1.000  H 
  C171     1.0000 0.65310  0.35290  0.25530  Biso   1.000  C 
  O46      1.0000 0.65880  0.42020  0.24388  Biso   1.000  O 
  O47      1.0000 0.68510  0.29940  0.23108  Biso   1.000  O 
  H86      1.0000 0.37750  0.53870  0.56240  Biso   1.000  H 
  O48      1.0000 0.29940  0.68510  0.51892  Biso   1.000  O 
  C172     1.0000 0.35290  0.65310  0.49470  Biso   1.000  C 
  C173     1.0000 0.33140  0.60430  0.45350  Biso   1.000  C 
  C174     1.0000 0.25880  0.59480  0.43950  Biso   1.000  C 
  C175     1.0000 0.23930  0.54910  0.39880  Biso   1.000  C 
  H87      1.0000 0.18810  0.54380  0.38940  Biso   1.000  H 
  C176     1.0000 0.29430  0.51210  0.37260  Biso   1.000  C 
  C177     1.0000 0.27320  0.46190  0.32960  Biso   1.000  C 
  C178     1.0000 0.32810  0.43090  0.29950  Biso   1.000  C 
  H88      1.0000 0.37970  0.43790  0.30700  Biso   1.000  H 
  C179     1.0000 0.30700  0.39030  0.25890  Biso   1.000  C 
  C180     1.0000 0.36440  0.35980  0.22340  Biso   1.000  C 
  C181     1.0000 0.34350  0.30380  0.18810  Biso   1.000  C 
  C182     1.0000 0.39490  0.27950  0.15390  Biso   1.000  C 
  H89      1.0000 0.38040  0.24270  0.13010  Biso   1.000  H 
  C183     1.0000 0.46600  0.30630  0.15290  Biso   1.000  C 
  C184     1.0000 0.48840  0.35990  0.18770  Biso   1.000  C 
  C185     1.0000 0.43780  0.38760  0.22230  Biso   1.000  C 
  H90      1.0000 0.45300  0.42530  0.24530  Biso   1.000  H 
  H91      1.0000 0.53870  0.37750  0.18760  Biso   1.000  H 
  H92      1.0000 0.29420  0.28360  0.18830  Biso   1.000  H 
  C186     1.0000 0.23280  0.37840  0.24900  Biso   1.000  C 
  H93      1.0000 0.21860  0.34810  0.22140  Biso   1.000  H 
  C187     1.0000 0.18000  0.40900  0.27790  Biso   1.000  C 
  C188     1.0000 0.10010  0.39810  0.26640  Biso   1.000  C 
  C189     1.0000 0.07880  0.36580  0.22190  Biso   1.000  C 
  H94      1.0000 0.11650  0.34900  0.19940  Biso   1.000  H 
  C190     1.0000 0.00390  0.35730  0.20890  Biso   1.000  C 
  C191     1.0000 0.95050  0.38550  0.24030  Biso   1.000  C 
  C192     1.0000 0.96930  0.41610  0.28470  Biso   1.000  C 
  H95      1.0000 0.93120  0.43310  0.30670  Biso   1.000  H 
  C193     1.0000 0.04310  0.42250  0.29780  Biso   1.000  C 
  H96      1.0000 0.05570  0.44400  0.32910  Biso   1.000  H 
  H97      1.0000 0.99000  0.33240  0.17900  Biso   1.000  H 
  N8       1.0000 0.20090  0.45200  0.31900  Biso   1.000  N 
  C194     1.0000 0.36740  0.52250  0.38650  Biso   1.000  C 
  H98      1.0000 0.40620  0.49850  0.36810  Biso   1.000  H 
  C195     1.0000 0.38600  0.56700  0.42670  Biso   1.000  C 
  H99      1.0000 0.43720  0.57220  0.43610  Biso   1.000  H 
  H100     1.0000 0.22030  0.61970  0.45770  Biso   1.000  H 
  O49      1.0000 0.42020  0.65880  0.50612  Biso   1.000  O 
  O50      1.0000 0.58450  0.82400  0.50320  Biso   1.000  O 
  C196     1.0000 0.46600  0.69370  0.34710  Biso   1.000  C 
  C197     1.0000 0.48840  0.64010  0.31230  Biso   1.000  C 
  C198     1.0000 0.43780  0.61240  0.27770  Biso   1.000  C 
  H101     1.0000 0.45300  0.57470  0.25470  Biso   1.000  H 
  C199     1.0000 0.36440  0.64020  0.27660  Biso   1.000  C 
  C200     1.0000 0.34350  0.69620  0.31190  Biso   1.000  C 
  H102     1.0000 0.29420  0.71640  0.31170  Biso   1.000  H 
  C201     1.0000 0.39490  0.72050  0.34610  Biso   1.000  C 
  H103     1.0000 0.38040  0.75730  0.36990  Biso   1.000  H 
  C202     1.0000 0.30700  0.60970  0.24110  Biso   1.000  C 
  C203     1.0000 0.32810  0.56910  0.20050  Biso   1.000  C 
  H104     1.0000 0.37970  0.56210  0.19300  Biso   1.000  H 
  C204     1.0000 0.23280  0.62160  0.25100  Biso   1.000  C 
  H105     1.0000 0.21860  0.65190  0.27860  Biso   1.000  H 
  H106     1.0000 0.53870  0.62250  0.31240  Biso   1.000  H 
  O51      1.0000 0.74750  0.74750  0.37500  Biso   1.000  O 
  C205     1.0000 0.58390  0.96930  0.53470  Biso   1.000  C 
  H107     1.0000 0.56690  0.93120  0.55670  Biso   1.000  H 
  C206     1.0000 0.57750  0.04310  0.54780  Biso   1.000  C 
  H108     1.0000 0.55600  0.05570  0.57910  Biso   1.000  H 
  H109     1.0000 0.66760  0.99000  0.42900  Biso   1.000  H 
  H110     1.0000 0.62250  0.53870  0.43760  Biso   1.000  H 
  C207     1.0000 0.00390  0.64270  0.29110  Biso   1.000  C 
  C208     1.0000 0.07880  0.63420  0.27810  Biso   1.000  C 
  H111     1.0000 0.11650  0.65100  0.30060  Biso   1.000  H 
  H112     1.0000 0.99000  0.66760  0.32100  Biso   1.000  H 
  O52      1.0000 0.42020  0.34120  0.99388  Biso   1.000  O 
