data_image0
_cell_length_a       15.5529
_cell_length_b       15.9928
_cell_length_c       23.1639
_cell_angle_alpha    90.552
_cell_angle_beta     96.928
_cell_angle_gamma    116.952

_symmetry_space_group_name_H-M    "P 1"
_symmetry_int_tables_number       1

loop_
  _symmetry_equiv_pos_as_xyz
  'x, y, z'

loop_
  _atom_site_label
  _atom_site_occupancy
  _atom_site_fract_x
  _atom_site_fract_y
  _atom_site_fract_z
  _atom_site_thermal_displace_type
  _atom_site_B_iso_or_equiv
  _atom_site_type_symbol
  Co1      1.0000 0.66695  0.38395  0.61364  Biso   1.000  Co
  Co2      1.0000 0.33305  0.61605  0.38636  Biso   1.000  Co
  N1       1.0000 0.54709  0.39525  0.60303  Biso   1.000  N 
  N2       1.0000 0.45291  0.60475  0.39697  Biso   1.000  N 
  N3       1.0000 0.71628  0.39774  0.69772  Biso   1.000  N 
  N4       1.0000 0.28372  0.60226  0.30228  Biso   1.000  N 
  N5       1.0000 0.64804  0.25706  0.59152  Biso   1.000  N 
  N6       1.0000 0.35196  0.74294  0.40848  Biso   1.000  N 
  N7       1.0000 0.77400  0.48413  0.58058  Biso   1.000  N 
  N8       1.0000 0.22600  0.51587  0.41942  Biso   1.000  N 
  C1       1.0000 0.45320  0.32750  0.59770  Biso   1.000  C 
  C2       1.0000 0.54680  0.67250  0.40230  Biso   1.000  C 
  C3       1.0000 0.54270  0.47450  0.60105  Biso   1.000  C 
  C4       1.0000 0.45730  0.52550  0.39895  Biso   1.000  C 
  N9       1.0000 0.79990  0.39320  0.71282  Biso   1.000  N 
  N10      1.0000 0.20010  0.60680  0.28718  Biso   1.000  N 
  C5       1.0000 0.68160  0.39940  0.74657  Biso   1.000  C 
  C6       1.0000 0.31840  0.60060  0.25343  Biso   1.000  C 
  C7       1.0000 0.39360  0.36600  0.59210  Biso   1.000  C 
  C8       1.0000 0.60640  0.63400  0.40790  Biso   1.000  C 
  H1       1.0000 0.43360  0.26330  0.59800  Biso   1.000  H 
  H2       1.0000 0.56640  0.73670  0.40200  Biso   1.000  H 
  N11      1.0000 0.45077  0.45886  0.59449  Biso   1.000  N 
  N12      1.0000 0.54923  0.54114  0.40551  Biso   1.000  N 
  H3       1.0000 0.59630  0.53360  0.60380  Biso   1.000  H 
  H4       1.0000 0.40370  0.46640  0.39620  Biso   1.000  H 
  N13      1.0000 0.81448  0.39200  0.76832  Biso   1.000  N 
  N14      1.0000 0.18552  0.60800  0.23168  Biso   1.000  N 
  N15      1.0000 0.73994  0.39553  0.79070  Biso   1.000  N 
  N16      1.0000 0.26006  0.60447  0.20930  Biso   1.000  N 
  H5       1.0000 0.62410  0.40290  0.74920  Biso   1.000  H 
  H6       1.0000 0.37590  0.59710  0.25080  Biso   1.000  H 
  H7       1.0000 0.32580  0.33490  0.58750  Biso   1.000  H 
  H8       1.0000 0.67420  0.66510  0.41250  Biso   1.000  H 
  C9       1.0000 0.41820  0.52760  0.59015  Biso   1.000  C 
  C10      1.0000 0.58180  0.47240  0.40985  Biso   1.000  C 
  Co3      1.0000 0.73880  0.38754  0.87507  Biso   1.000  Co
  Co4      1.0000 0.26120  0.61246  0.12493  Biso   1.000  Co
  C11      1.0000 0.46680  0.60460  0.56020  Biso   1.000  C 
  C12      1.0000 0.53320  0.39540  0.43980  Biso   1.000  C 
  C13      1.0000 0.33690  0.51470  0.61442  Biso   1.000  C 
  C14      1.0000 0.66310  0.48530  0.38558  Biso   1.000  C 
  N17      1.0000 0.86999  0.40463  0.90334  Biso   1.000  N 
  N18      1.0000 0.13001  0.59537  0.09666  Biso   1.000  N 
  N19      1.0000 0.63161  0.26606  0.89050  Biso   1.000  N 
  N20      1.0000 0.36839  0.73394  0.10950  Biso   1.000  N 
  N21      1.0000 0.71889  0.48630  0.91231  Biso   1.000  N 
  N22      1.0000 0.28111  0.51370  0.08769  Biso   1.000  N 
  C15      1.0000 0.43530  0.67090  0.55525  Biso   1.000  C 
  C16      1.0000 0.56470  0.32910  0.44475  Biso   1.000  C 
  H9       1.0000 0.52090  0.61150  0.54350  Biso   1.000  H 
  H10      1.0000 0.47910  0.38850  0.45650  Biso   1.000  H 
  C17      1.0000 0.30470  0.58060  0.60909  Biso   1.000  C 
  C18      1.0000 0.69530  0.41940  0.39091  Biso   1.000  C 
  H11      1.0000 0.30440  0.46150  0.63420  Biso   1.000  H 
  H12      1.0000 0.69560  0.53850  0.36580  Biso   1.000  H 
  C19      1.0000 0.90060  0.33850  0.91286  Biso   1.000  C 
  C20      1.0000 0.09940  0.66150  0.08714  Biso   1.000  C 
  C21      1.0000 0.94910  0.48430  0.90339  Biso   1.000  C 
  C22      1.0000 0.05090  0.51570  0.09661  Biso   1.000  C 
  C23      1.0000 0.35410  0.66003  0.58035  Biso   1.000  C 
  C24      1.0000 0.64590  0.33997  0.41965  Biso   1.000  C 
  H13      1.0000 0.46790  0.72370  0.53510  Biso   1.000  H 
  H14      1.0000 0.53210  0.27630  0.46490  Biso   1.000  H 
  H15      1.0000 0.24930  0.57220  0.62480  Biso   1.000  H 
  H16      1.0000 0.75070  0.42780  0.37520  Biso   1.000  H 
  C25      1.0000 0.99830  0.37970  0.91891  Biso   1.000  C 
  C26      1.0000 0.00170  0.62030  0.08109  Biso   1.000  C 
  H17      1.0000 0.86040  0.27470  0.91490  Biso   1.000  H 
  H18      1.0000 0.13960  0.72530  0.08510  Biso   1.000  H 
  N23      1.0000 0.02869  0.47263  0.91278  Biso   1.000  N 
  N24      1.0000 0.97131  0.52737  0.08722  Biso   1.000  N 
  H19      1.0000 0.94950  0.54190  0.89760  Biso   1.000  H 
  H20      1.0000 0.05050  0.45810  0.10240  Biso   1.000  H 
  N25      1.0000 0.32230  0.72801  0.57601  Biso   1.000  N 
  N26      1.0000 0.67770  0.27199  0.42399  Biso   1.000  N 
  H21      1.0000 0.03770  0.35020  0.92600  Biso   1.000  H 
  H22      1.0000 0.96230  0.64980  0.07400  Biso   1.000  H 
  C27      1.0000 0.12720  0.54325  0.91733  Biso   1.000  C 
  C28      1.0000 0.87280  0.45675  0.08267  Biso   1.000  C 
  C29      1.0000 0.38780  0.82250  0.57881  Biso   1.000  C 
  C30      1.0000 0.61220  0.17750  0.42119  Biso   1.000  C 
  C31      1.0000 0.22060  0.69730  0.57170  Biso   1.000  C 
  C32      1.0000 0.77940  0.30270  0.42830  Biso   1.000  C 
  C33      1.0000 0.19370  0.52465  0.89354  Biso   1.000  C 
  C34      1.0000 0.80630  0.47535  0.10646  Biso   1.000  C 
  C35      1.0000 0.15490  0.62780  0.94670  Biso   1.000  C 
  C36      1.0000 0.84510  0.37220  0.05330  Biso   1.000  C 
  C37      1.0000 0.48100  0.85700  0.60944  Biso   1.000  C 
  C38      1.0000 0.51900  0.14300  0.39056  Biso   1.000  C 
  C39      1.0000 0.36100  0.88430  0.55104  Biso   1.000  C 
  C40      1.0000 0.63900  0.11570  0.44896  Biso   1.000  C 
  C41      1.0000 0.18020  0.71000  0.61876  Biso   1.000  C 
  C42      1.0000 0.81980  0.29000  0.38124  Biso   1.000  C 
  C43      1.0000 0.16130  0.65100  0.52060  Biso   1.000  C 
  C44      1.0000 0.83870  0.34900  0.47940  Biso   1.000  C 
  C45      1.0000 0.28950  0.59180  0.89917  Biso   1.000  C 
  C46      1.0000 0.71050  0.40820  0.10083  Biso   1.000  C 
  H23      1.0000 0.17420  0.46680  0.87360  Biso   1.000  H 
  H24      1.0000 0.82580  0.53320  0.12640  Biso   1.000  H 
  C47      1.0000 0.25110  0.69443  0.95301  Biso   1.000  C 
  C48      1.0000 0.74890  0.30557  0.04699  Biso   1.000  C 
  H25      1.0000 0.10920  0.64040  0.96230  Biso   1.000  H 
  H26      1.0000 0.89080  0.35960  0.03770  Biso   1.000  H 
  H27      1.0000 0.49950  0.81590  0.62890  Biso   1.000  H 
  H28      1.0000 0.50050  0.18410  0.37110  Biso   1.000  H 
  C49      1.0000 0.54540  0.94940  0.61153  Biso   1.000  C 
  C50      1.0000 0.45460  0.05060  0.38847  Biso   1.000  C 
  H29      1.0000 0.29860  0.86270  0.53090  Biso   1.000  H 
  H30      1.0000 0.70140  0.13730  0.46910  Biso   1.000  H 
  C51      1.0000 0.42600  0.97742  0.55293  Biso   1.000  C 
  C52      1.0000 0.57400  0.02258  0.44707  Biso   1.000  C 
  H31      1.0000 0.22030  0.74430  0.65250  Biso   1.000  H 
  H32      1.0000 0.77970  0.25570  0.34750  Biso   1.000  H 
  C53      1.0000 0.08030  0.67190  0.61587  Biso   1.000  C 
  C54      1.0000 0.91970  0.32810  0.38413  Biso   1.000  C 
  H33      1.0000 0.18880  0.64460  0.48840  Biso   1.000  H 
  H34      1.0000 0.81120  0.35540  0.51160  Biso   1.000  H 
  C55      1.0000 0.06230  0.61440  0.51705  Biso   1.000  C 
  C56      1.0000 0.93770  0.38560  0.48295  Biso   1.000  C 
  C57      1.0000 0.31940  0.67730  0.92916  Biso   1.000  C 
  C58      1.0000 0.68060  0.32270  0.07084  Biso   1.000  C 
  H35      1.0000 0.33440  0.57940  0.88260  Biso   1.000  H 
  H36      1.0000 0.66560  0.42060  0.11740  Biso   1.000  H 
  H37      1.0000 0.27050  0.75170  0.97360  Biso   1.000  H 
  H38      1.0000 0.72950  0.24830  0.02640  Biso   1.000  H 
  H39      1.0000 0.60760  0.97150  0.63220  Biso   1.000  H 
  H40      1.0000 0.39240  0.02850  0.36780  Biso   1.000  H 
  C59      1.0000 0.51820  0.00962  0.58316  Biso   1.000  C 
  C60      1.0000 0.48180  0.99038  0.41684  Biso   1.000  C 
  H41      1.0000 0.40800  0.01910  0.53380  Biso   1.000  H 
  H42      1.0000 0.59200  0.98090  0.46620  Biso   1.000  H 
  H43      1.0000 0.05250  0.67910  0.64770  Biso   1.000  H 
  H44      1.0000 0.94750  0.32090  0.35230  Biso   1.000  H 
  C61      1.0000 0.02260  0.62300  0.56520  Biso   1.000  C 
  C62      1.0000 0.97740  0.37700  0.43480  Biso   1.000  C 
  H45      1.0000 0.02240  0.58400  0.48240  Biso   1.000  H 
  H46      1.0000 0.97760  0.41600  0.51760  Biso   1.000  H 
  N27      1.0000 0.41815  0.74427  0.93588  Biso   1.000  N 
  N28      1.0000 0.58185  0.25573  0.06412  Biso   1.000  N 
  N29      1.0000 0.58704  0.10574  0.58657  Biso   1.000  N 
  N30      1.0000 0.41296  0.89426  0.41343  Biso   1.000  N 
  N31      1.0000 0.91943  0.57790  0.56174  Biso   1.000  N 
  N32      1.0000 0.08057  0.42210  0.43826  Biso   1.000  N 
  C63      1.0000 0.44790  0.83895  0.93107  Biso   1.000  C 
  C64      1.0000 0.55210  0.16105  0.06893  Biso   1.000  C 
  C65      1.0000 0.48690  0.70906  0.93728  Biso   1.000  C 
  C66      1.0000 0.51310  0.29094  0.06272  Biso   1.000  C 
  C67      1.0000 0.68660  0.14190  0.59879  Biso   1.000  C 
  C68      1.0000 0.31340  0.85810  0.40121  Biso   1.000  C 
  C69      1.0000 0.56730  0.17740  0.58252  Biso   1.000  C 
  C70      1.0000 0.43270  0.82260  0.41748  Biso   1.000  C 
  C71      1.0000 0.85530  0.57870  0.51623  Biso   1.000  C 
  C72      1.0000 0.14470  0.42130  0.48377  Biso   1.000  C 
  C73      1.0000 0.86750  0.51960  0.59923  Biso   1.000  C 
  C74      1.0000 0.13250  0.48040  0.40077  Biso   1.000  C 
  C75      1.0000 0.54210  0.90521  0.95407  Biso   1.000  C 
  C76      1.0000 0.45790  0.09479  0.04593  Biso   1.000  C 
  C77      1.0000 0.38600  0.87004  0.90266  Biso   1.000  C 
  C78      1.0000 0.61400  0.12996  0.09734  Biso   1.000  C 
  C79      1.0000 0.49430  0.65830  0.98314  Biso   1.000  C 
  C80      1.0000 0.50570  0.34170  0.01686  Biso   1.000  C 
  C81      1.0000 0.54140  0.72040  0.89291  Biso   1.000  C 
  C82      1.0000 0.45860  0.27960  0.10709  Biso   1.000  C 
  H47      1.0000 0.72150  0.10760  0.60380  Biso   1.000  H 
  H48      1.0000 0.27850  0.89240  0.39620  Biso   1.000  H 
  C83      1.0000 0.72370  0.23480  0.60216  Biso   1.000  C 
  C84      1.0000 0.27630  0.76520  0.39784  Biso   1.000  C 
  H49      1.0000 0.50500  0.17240  0.57440  Biso   1.000  H 
  H50      1.0000 0.49500  0.82760  0.42560  Biso   1.000  H 
  H51      1.0000 0.87040  0.61230  0.48320  Biso   1.000  H 
  H52      1.0000 0.12960  0.38770  0.51680  Biso   1.000  H 
  C85      1.0000 0.76620  0.52110  0.52872  Biso   1.000  C 
  C86      1.0000 0.23380  0.47890  0.47128  Biso   1.000  C 
  H53      1.0000 0.89400  0.50600  0.63380  Biso   1.000  H 
  H54      1.0000 0.10600  0.49400  0.36620  Biso   1.000  H 
  H55      1.0000 0.58460  0.88520  0.97350  Biso   1.000  H 
  H56      1.0000 0.41540  0.11480  0.02650  Biso   1.000  H 
  C87      1.0000 0.57263  0.99849  0.94856  Biso   1.000  C 
  C88      1.0000 0.42737  0.00151  0.05144  Biso   1.000  C 
  H57      1.0000 0.32280  0.82680  0.88740  Biso   1.000  H 
  H58      1.0000 0.67720  0.17320  0.11260  Biso   1.000  H 
  C89      1.0000 0.41640  0.96306  0.89671  Biso   1.000  C 
  C90      1.0000 0.58360  0.03694  0.10329  Biso   1.000  C 
  H59      1.0000 0.45790  0.65130  0.01340  Biso   1.000  H 
  H60      1.0000 0.54210  0.34870  0.98660  Biso   1.000  H 
  C91      1.0000 0.55480  0.61820  0.98432  Biso   1.000  C 
  C92      1.0000 0.44520  0.38180  0.01568  Biso   1.000  C 
  H61      1.0000 0.53700  0.75610  0.86230  Biso   1.000  H 
  H62      1.0000 0.46300  0.24390  0.13770  Biso   1.000  H 
  C93      1.0000 0.60220  0.67980  0.89339  Biso   1.000  C 
  C94      1.0000 0.39780  0.32020  0.10661  Biso   1.000  C 
  H63      1.0000 0.78940  0.27740  0.61030  Biso   1.000  H 
  H64      1.0000 0.21060  0.72260  0.38970  Biso   1.000  H 
  H65      1.0000 0.70800  0.50840  0.50550  Biso   1.000  H 
  H66      1.0000 0.29200  0.49160  0.49450  Biso   1.000  H 
  H67      1.0000 0.63540  0.04220  0.96430  Biso   1.000  H 
  H68      1.0000 0.36460  0.95780  0.03570  Biso   1.000  H 
  C95      1.0000 0.50970  0.02742  0.91944  Biso   1.000  C 
  C96      1.0000 0.49030  0.97258  0.08056  Biso   1.000  C 
  H69      1.0000 0.37420  0.98340  0.87730  Biso   1.000  H 
  H70      1.0000 0.62580  0.01660  0.12270  Biso   1.000  H 
  H71      1.0000 0.56090  0.58430  0.01560  Biso   1.000  H 
  H72      1.0000 0.43910  0.41570  0.98440  Biso   1.000  H 
  C97      1.0000 0.60710  0.62810  0.93880  Biso   1.000  C 
  C98      1.0000 0.39290  0.37190  0.06120  Biso   1.000  C 
  H73      1.0000 0.63930  0.68730  0.86340  Biso   1.000  H 
  H74      1.0000 0.36070  0.31270  0.13660  Biso   1.000  H 
  N33      1.0000 0.54070  0.12316  0.91076  Biso   1.000  N 
  N34      1.0000 0.45930  0.87684  0.08924  Biso   1.000  N 
  N35      1.0000 0.66533  0.58122  0.93902  Biso   1.000  N 
  N36      1.0000 0.33467  0.41878  0.06098  Biso   1.000  N 
  C99      1.0000 0.48160  0.16519  0.90394  Biso   1.000  C 
  C100     1.0000 0.51840  0.83481  0.09606  Biso   1.000  C 
  C101     1.0000 0.63010  0.18610  0.90239  Biso   1.000  C 
  C102     1.0000 0.36990  0.81390  0.09761  Biso   1.000  C 
  C103     1.0000 0.72380  0.57590  0.98612  Biso   1.000  C 
  C104     1.0000 0.27620  0.42410  0.01388  Biso   1.000  C 
  C105     1.0000 0.66370  0.52510  0.89592  Biso   1.000  C 
  C106     1.0000 0.33630  0.47490  0.10408  Biso   1.000  C 
  H75      1.0000 0.41570  0.13840  0.90750  Biso   1.000  H 
  H76      1.0000 0.58430  0.86160  0.09250  Biso   1.000  H 
  C107     1.0000 0.53810  0.25300  0.89108  Biso   1.000  C 
  C108     1.0000 0.46190  0.74700  0.10892  Biso   1.000  C 
  H77      1.0000 0.68370  0.17440  0.90470  Biso   1.000  H 
  H78      1.0000 0.31630  0.82560  0.09530  Biso   1.000  H 
  H79      1.0000 0.73810  0.60680  0.02290  Biso   1.000  H 
  H80      1.0000 0.26190  0.39320  0.97710  Biso   1.000  H 
  C109     1.0000 0.75590  0.51770  0.96875  Biso   1.000  C 
  C110     1.0000 0.24410  0.48230  0.03125  Biso   1.000  C 
  H81      1.0000 0.62790  0.51500  0.85910  Biso   1.000  H 
  H82      1.0000 0.37210  0.48500  0.14090  Biso   1.000  H 
  H83      1.0000 0.51720  0.29840  0.88360  Biso   1.000  H 
  H84      1.0000 0.48280  0.70160  0.11640  Biso   1.000  H 
  H85      1.0000 0.79790  0.50080  0.99190  Biso   1.000  H 
  H86      1.0000 0.20210  0.49920  0.00810  Biso   1.000  H 
  Co5      1.0000 0.12029  0.31119  0.74629  Biso   1.000  Co
  Co6      1.0000 0.87971  0.68881  0.25371  Biso   1.000  Co
  N37      1.0000 0.19932  0.59136  0.75701  Biso   1.000  N 
  N38      1.0000 0.80068  0.40864  0.24299  Biso   1.000  N 
  N39      1.0000 0.13828  0.44017  0.75325  Biso   1.000  N 
  N40      1.0000 0.86172  0.55983  0.24675  Biso   1.000  N 
  N41      1.0000 0.45596  0.96966  0.74848  Biso   1.000  N 
  N42      1.0000 0.54404  0.03034  0.25152  Biso   1.000  N 
  N43      1.0000 0.25780  0.17364  0.68461  Biso   1.000  N 
  N44      1.0000 0.74220  0.82636  0.31539  Biso   1.000  N 
  N45      1.0000 0.18039  0.25241  0.70126  Biso   1.000  N 
  N46      1.0000 0.81961  0.74759  0.29874  Biso   1.000  N 
  N47      1.0000 0.86204  0.14469  0.80538  Biso   1.000  N 
  N48      1.0000 0.13796  0.85531  0.19462  Biso   1.000  N 
  N49      1.0000 0.01231  0.22619  0.78940  Biso   1.000  N 
  N50      1.0000 0.98769  0.77381  0.21060  Biso   1.000  N 
  C111     1.0000 0.39510  0.87443  0.75370  Biso   1.000  C 
  C112     1.0000 0.60490  0.12557  0.24630  Biso   1.000  C 
  C113     1.0000 0.42420  0.80740  0.74359  Biso   1.000  C 
  C114     1.0000 0.57580  0.19260  0.25641  Biso   1.000  C 
  H87      1.0000 0.48680  0.82510  0.73510  Biso   1.000  H 
  H88      1.0000 0.51320  0.17490  0.26490  Biso   1.000  H 
  C115     1.0000 0.30190  0.84586  0.76767  Biso   1.000  C 
  C116     1.0000 0.69810  0.15414  0.23233  Biso   1.000  C 
  H89      1.0000 0.28200  0.89110  0.77540  Biso   1.000  H 
  H90      1.0000 0.71800  0.10890  0.22460  Biso   1.000  H 
  C117     1.0000 0.36140  0.71426  0.74595  Biso   1.000  C 
  C118     1.0000 0.63860  0.28574  0.25405  Biso   1.000  C 
  H91      1.0000 0.38160  0.66890  0.73910  Biso   1.000  H 
  H92      1.0000 0.61840  0.33110  0.26090  Biso   1.000  H 
  C119     1.0000 0.23910  0.75367  0.77037  Biso   1.000  C 
  C120     1.0000 0.76090  0.24633  0.22963  Biso   1.000  C 
  H93      1.0000 0.17730  0.73610  0.78020  Biso   1.000  H 
  H94      1.0000 0.82270  0.26390  0.21980  Biso   1.000  H 
  C121     1.0000 0.26770  0.68705  0.75848  Biso   1.000  C 
  C122     1.0000 0.73230  0.31295  0.24152  Biso   1.000  C 
  C123     1.0000 0.10050  0.55590  0.75654  Biso   1.000  C 
  C124     1.0000 0.89950  0.44410  0.24346  Biso   1.000  C 
  H95      1.0000 0.06610  0.59050  0.75770  Biso   1.000  H 
  H96      1.0000 0.93390  0.40950  0.24230  Biso   1.000  H 
  C125     1.0000 0.06350  0.46260  0.75410  Biso   1.000  C 
  C126     1.0000 0.93650  0.53740  0.24590  Biso   1.000  C 
  H97      1.0000 0.99800  0.42010  0.75310  Biso   1.000  H 
  H98      1.0000 0.00200  0.57990  0.24690  Biso   1.000  H 
  C127     1.0000 0.21830  0.51857  0.75475  Biso   1.000  C 
  C128     1.0000 0.78170  0.48143  0.24525  Biso   1.000  C 
  H99      1.0000 0.27990  0.52290  0.75430  Biso   1.000  H 
  H100     1.0000 0.72010  0.47710  0.24570  Biso   1.000  H 
  C129     1.0000 0.41090  0.02491  0.72926  Biso   1.000  C 
  C130     1.0000 0.58910  0.97509  0.27074  Biso   1.000  C 
  C131     1.0000 0.33930  0.99410  0.68163  Biso   1.000  C 
  C132     1.0000 0.66070  0.00590  0.31837  Biso   1.000  C 
  H101     1.0000 0.32490  0.93900  0.66000  Biso   1.000  H 
  H102     1.0000 0.67510  0.06100  0.34000  Biso   1.000  H 
  C133     1.0000 0.43700  0.10940  0.75885  Biso   1.000  C 
  C134     1.0000 0.56300  0.89060  0.24115  Biso   1.000  C 
  H103     1.0000 0.48700  0.13160  0.79010  Biso   1.000  H 
  H104     1.0000 0.51300  0.86840  0.20990  Biso   1.000  H 
  C135     1.0000 0.28950  0.04360  0.66591  Biso   1.000  C 
  C136     1.0000 0.71050  0.95640  0.33409  Biso   1.000  C 
  H105     1.0000 0.23970  0.02160  0.63450  Biso   1.000  H 
  H106     1.0000 0.76030  0.97840  0.36550  Biso   1.000  H 
  C137     1.0000 0.38960  0.16060  0.74245  Biso   1.000  C 
  C138     1.0000 0.61040  0.83940  0.25755  Biso   1.000  C 
  H107     1.0000 0.40810  0.21870  0.76180  Biso   1.000  H 
  H108     1.0000 0.59190  0.78130  0.23820  Biso   1.000  H 
  C139     1.0000 0.31410  0.12610  0.69708  Biso   1.000  C 
  C140     1.0000 0.68590  0.87390  0.30292  Biso   1.000  C 
  C141     1.0000 0.20510  0.17200  0.63283  Biso   1.000  C 
  C142     1.0000 0.79490  0.82800  0.36717  Biso   1.000  C 
  H109     1.0000 0.20230  0.14250  0.59730  Biso   1.000  H 
  H110     1.0000 0.79770  0.85750  0.40270  Biso   1.000  H 
  C143     1.0000 0.15810  0.22160  0.64363  Biso   1.000  C 
  C144     1.0000 0.84190  0.77840  0.35637  Biso   1.000  C 
  H111     1.0000 0.11680  0.23330  0.61620  Biso   1.000  H 
  H112     1.0000 0.88320  0.76670  0.38380  Biso   1.000  H 
  C145     1.0000 0.24100  0.22250  0.72462  Biso   1.000  C 
  C146     1.0000 0.75900  0.77750  0.27538  Biso   1.000  C 
  H113     1.0000 0.26850  0.23370  0.76360  Biso   1.000  H 
  H114     1.0000 0.73150  0.76630  0.23640  Biso   1.000  H 
  C147     1.0000 0.55720  0.01269  0.76447  Biso   1.000  C 
  C148     1.0000 0.44280  0.98731  0.23553  Biso   1.000  C 
  C149     1.0000 0.61540  0.09180  0.73809  Biso   1.000  C 
  C150     1.0000 0.38460  0.90820  0.26191  Biso   1.000  C 
  H115     1.0000 0.58680  0.11500  0.70920  Biso   1.000  H 
  H116     1.0000 0.41320  0.88500  0.29080  Biso   1.000  H 
  C151     1.0000 0.60150  0.98001  0.80722  Biso   1.000  C 
  C152     1.0000 0.39850  0.01999  0.19278  Biso   1.000  C 
  H117     1.0000 0.56350  0.92830  0.82670  Biso   1.000  H 
  H118     1.0000 0.43650  0.07170  0.17330  Biso   1.000  H 
  C153     1.0000 0.71450  0.13690  0.75360  Biso   1.000  C 
  C154     1.0000 0.28550  0.86310  0.24640  Biso   1.000  C 
  H119     1.0000 0.75210  0.19180  0.73660  Biso   1.000  H 
  H120     1.0000 0.24790  0.80820  0.26340  Biso   1.000  H 
  C155     1.0000 0.70180  0.02318  0.82147  Biso   1.000  C 
  C156     1.0000 0.29820  0.97682  0.17853  Biso   1.000  C 
  H121     1.0000 0.73100  0.99930  0.84950  Biso   1.000  H 
  H122     1.0000 0.26900  0.00070  0.15050  Biso   1.000  H 
  C157     1.0000 0.75820  0.10120  0.79415  Biso   1.000  C 
  C158     1.0000 0.24180  0.89880  0.20585  Biso   1.000  C 
  C159     1.0000 0.91940  0.13970  0.85261  Biso   1.000  C 
  C160     1.0000 0.08060  0.86030  0.14739  Biso   1.000  C 
  H123     1.0000 0.89890  0.10750  0.88550  Biso   1.000  H 
  H124     1.0000 0.10110  0.89250  0.11450  Biso   1.000  H 
  C161     1.0000 0.01240  0.19070  0.84253  Biso   1.000  C 
  C162     1.0000 0.98760  0.80930  0.15747  Biso   1.000  C 
  H125     1.0000 0.06760  0.20010  0.86790  Biso   1.000  H 
  H126     1.0000 0.93240  0.79990  0.13210  Biso   1.000  H 
  C163     1.0000 0.92040  0.19690  0.76850  Biso   1.000  C 
  C164     1.0000 0.07960  0.80310  0.23150  Biso   1.000  C 
  H127     1.0000 0.89880  0.21080  0.73240  Biso   1.000  H 
  H128     1.0000 0.10120  0.78920  0.26760  Biso   1.000  H 
  O1       1.0000 0.00667  0.28570  0.67096  Biso   1.000  O 
  O2       1.0000 0.99333  0.71430  0.32904  Biso   1.000  O 
  O3       1.0000 0.10688  0.39339  0.62307  Biso   1.000  O 
  O4       1.0000 0.89312  0.60661  0.37693  Biso   1.000  O 
  O5       1.0000 0.95757  0.36656  0.61595  Biso   1.000  O 
  O6       1.0000 0.04243  0.63344  0.38405  Biso   1.000  O 
  N51      1.0000 0.02387  0.34989  0.63552  Biso   1.000  N 
  N52      1.0000 0.97613  0.65011  0.36448  Biso   1.000  N 
  O7       1.0000 0.23449  0.34859  0.82206  Biso   1.000  O 
  O8       1.0000 0.76551  0.65141  0.17794  Biso   1.000  O 
  O9       1.0000 0.02650  0.67790  0.83952  Biso   1.000  O 
  O10      1.0000 0.97350  0.32210  0.16048  Biso   1.000  O 
  O11      1.0000 0.96930  0.67220  0.74978  Biso   1.000  O 
  O12      1.0000 0.03070  0.32780  0.25022  Biso   1.000  O 
  O13      1.0000 0.87460  0.63240  0.81780  Biso   1.000  O 
  O14      1.0000 0.12540  0.36760  0.18220  Biso   1.000  O 
  N53      1.0000 0.95530  0.66050  0.80213  Biso   1.000  N 
  N54      1.0000 0.04470  0.33950  0.19787  Biso   1.000  N 
  O15      1.0000 0.21950  0.24050  0.92624  Biso   1.000  O 
  O16      1.0000 0.78050  0.75950  0.07376  Biso   1.000  O 
  O17      1.0000 0.29143  0.15890  0.95438  Biso   1.000  O 
  O18      1.0000 0.70857  0.84110  0.04562  Biso   1.000  O 
  O19      1.0000 0.31620  0.22700  0.87506  Biso   1.000  O 
  O20      1.0000 0.68380  0.77300  0.12494  Biso   1.000  O 
  N55      1.0000 0.27480  0.20750  0.91863  Biso   1.000  N 
  N56      1.0000 0.72520  0.79250  0.08137  Biso   1.000  N 
  O21      1.0000 0.73940  0.81800  0.51540  Biso   1.000  O 
  O22      1.0000 0.26060  0.18200  0.48460  Biso   1.000  O 
  O23      1.0000 0.64640  0.84920  0.54140  Biso   1.000  O 
  O24      1.0000 0.35360  0.15080  0.45860  Biso   1.000  O 
  O25      1.0000 0.66820  0.87660  0.45958  Biso   1.000  O 
  O26      1.0000 0.33180  0.12340  0.54042  Biso   1.000  O 
  N57      1.0000 0.68570  0.85060  0.50563  Biso   1.000  N 
  N58      1.0000 0.31430  0.14940  0.49437  Biso   1.000  N 
  O27      1.0000 0.46160  0.38870  0.79952  Biso   1.000  O 
  O28      1.0000 0.53840  0.61130  0.20048  Biso   1.000  O 
  O29      1.0000 0.39530  0.47220  0.76940  Biso   1.000  O 
  O30      1.0000 0.60470  0.52780  0.23060  Biso   1.000  O 
  O31      1.0000 0.53510  0.49720  0.75050  Biso   1.000  O 
  O32      1.0000 0.46490  0.50280  0.24950  Biso   1.000  O 
  N59      1.0000 0.46180  0.45470  0.77184  Biso   1.000  N 
  N60      1.0000 0.53820  0.54530  0.22816  Biso   1.000  N 
  H129     1.0000 0.21404  0.36917  0.85621  Biso   1.000  H 
  H130     1.0000 0.78596  0.63083  0.14379  Biso   1.000  H 
  H131     1.0000 0.24468  0.29292  0.83121  Biso   1.000  H 
  H132     1.0000 0.75532  0.70708  0.16879  Biso   1.000  H 
