data_image0
_cell_length_a       12.4686
_cell_length_b       16.8975
_cell_length_c       15.768
_cell_angle_alpha    90
_cell_angle_beta     97.642
_cell_angle_gamma    90

_symmetry_space_group_name_H-M    "P 1"
_symmetry_int_tables_number       1

loop_
  _symmetry_equiv_pos_as_xyz
  'x, y, z'

loop_
  _atom_site_label
  _atom_site_occupancy
  _atom_site_fract_x
  _atom_site_fract_y
  _atom_site_fract_z
  _atom_site_thermal_displace_type
  _atom_site_B_iso_or_equiv
  _atom_site_type_symbol
  Eu1      1.0000 0.73945  0.80757  0.26425  Biso   1.000  Eu
  Eu2      1.0000 0.76055  0.30757  0.23575  Biso   1.000  Eu
  Eu3      1.0000 0.26055  0.19243  0.73575  Biso   1.000  Eu
  Eu4      1.0000 0.23945  0.69243  0.76425  Biso   1.000  Eu
  Ni1      1.0000 0.50483  0.73904  0.34072  Biso   1.000  Ni
  Ni2      1.0000 0.99517  0.23904  0.15928  Biso   1.000  Ni
  Ni3      1.0000 0.49517  0.26096  0.65928  Biso   1.000  Ni
  Ni4      1.0000 0.00483  0.76096  0.84072  Biso   1.000  Ni
  O1       1.0000 0.87240  0.72970  0.36800  Biso   1.000  O 
  O2       1.0000 0.62760  0.22970  0.13200  Biso   1.000  O 
  O3       1.0000 0.12760  0.27030  0.63200  Biso   1.000  O 
  O4       1.0000 0.37240  0.77030  0.86800  Biso   1.000  O 
  O5       1.0000 0.66490  0.71261  0.34960  Biso   1.000  O 
  O6       1.0000 0.83510  0.21261  0.15040  Biso   1.000  O 
  O7       1.0000 0.33510  0.28739  0.65040  Biso   1.000  O 
  O8       1.0000 0.16490  0.78739  0.84960  Biso   1.000  O 
  O9       1.0000 0.55270  0.82946  0.27010  Biso   1.000  O 
  O10      1.0000 0.94730  0.32946  0.22990  Biso   1.000  O 
  O11      1.0000 0.44730  0.17054  0.72990  Biso   1.000  O 
  O12      1.0000 0.05270  0.67054  0.77010  Biso   1.000  O 
  O13      1.0000 0.66710  0.94210  0.21760  Biso   1.000  O 
  O14      1.0000 0.83290  0.44210  0.28240  Biso   1.000  O 
  O15      1.0000 0.33290  0.05790  0.78240  Biso   1.000  O 
  O16      1.0000 0.16710  0.55790  0.71760  Biso   1.000  O 
  O17      1.0000 0.73190  0.87860  0.40090  Biso   1.000  O 
  O18      1.0000 0.76810  0.37860  0.09910  Biso   1.000  O 
  O19      1.0000 0.26810  0.12140  0.59910  Biso   1.000  O 
  O20      1.0000 0.23190  0.62140  0.90090  Biso   1.000  O 
  O21      1.0000 0.86730  0.90440  0.33090  Biso   1.000  O 
  O22      1.0000 0.63270  0.40440  0.16910  Biso   1.000  O 
  O23      1.0000 0.13270  0.09560  0.66910  Biso   1.000  O 
  O24      1.0000 0.36730  0.59560  0.83090  Biso   1.000  O 
  O25      1.0000 0.65520  0.78670  0.11300  Biso   1.000  O 
  O26      1.0000 0.84480  0.28670  0.38700  Biso   1.000  O 
  O27      1.0000 0.34480  0.21330  0.88700  Biso   1.000  O 
  O28      1.0000 0.15520  0.71330  0.61300  Biso   1.000  O 
  O29      1.0000 0.73100  0.68470  0.17540  Biso   1.000  O 
  O30      1.0000 0.76900  0.18470  0.32460  Biso   1.000  O 
  O31      1.0000 0.26900  0.31530  0.82460  Biso   1.000  O 
  O32      1.0000 0.23100  0.81530  0.67540  Biso   1.000  O 
  O33      1.0000 0.66210  0.67900  0.04210  Biso   1.000  O 
  O34      1.0000 0.83790  0.17900  0.45790  Biso   1.000  O 
  O35      1.0000 0.33790  0.32100  0.95790  Biso   1.000  O 
  O36      1.0000 0.16210  0.82100  0.54210  Biso   1.000  O 
  O37      1.0000 0.88500  0.81920  0.17970  Biso   1.000  O 
  O38      1.0000 0.61500  0.31920  0.32030  Biso   1.000  O 
  O39      1.0000 0.11500  0.18080  0.82030  Biso   1.000  O 
  O40      1.0000 0.38500  0.68080  0.67970  Biso   1.000  O 
  O41      1.0000 0.05490  0.83620  0.20360  Biso   1.000  O 
  O42      1.0000 0.44510  0.33620  0.29640  Biso   1.000  O 
  O43      1.0000 0.94510  0.16380  0.79640  Biso   1.000  O 
  O44      1.0000 0.55490  0.66380  0.70360  Biso   1.000  O 
  O45      1.0000 0.95500  0.92530  0.14340  Biso   1.000  O 
  O46      1.0000 0.54500  0.42530  0.35660  Biso   1.000  O 
  O47      1.0000 0.04500  0.07470  0.85660  Biso   1.000  O 
  O48      1.0000 0.45500  0.57470  0.64340  Biso   1.000  O 
  O49      1.0000 0.55010  0.81540  0.45070  Biso   1.000  O 
  O50      1.0000 0.94990  0.31540  0.04930  Biso   1.000  O 
  O51      1.0000 0.44990  0.18460  0.54930  Biso   1.000  O 
  O52      1.0000 0.05010  0.68460  0.95070  Biso   1.000  O 
  H1       1.0000 0.60480  0.85040  0.44150  Biso   1.000  H 
  H2       1.0000 0.89520  0.35040  0.05850  Biso   1.000  H 
  H3       1.0000 0.39520  0.14960  0.55850  Biso   1.000  H 
  H4       1.0000 0.10480  0.64960  0.94150  Biso   1.000  H 
  N1       1.0000 0.47970  0.64800  0.41920  Biso   1.000  N 
  N2       1.0000 0.02030  0.14800  0.08080  Biso   1.000  N 
  N3       1.0000 0.52030  0.35200  0.58080  Biso   1.000  N 
  N4       1.0000 0.97970  0.85200  0.91920  Biso   1.000  N 
  N5       1.0000 0.35300  0.78410  0.32960  Biso   1.000  N 
  N6       1.0000 0.14700  0.28410  0.17040  Biso   1.000  N 
  N7       1.0000 0.64700  0.21590  0.67040  Biso   1.000  N 
  N8       1.0000 0.85300  0.71590  0.82960  Biso   1.000  N 
  N9       1.0000 0.96320  0.83150  0.73100  Biso   1.000  N 
  N10      1.0000 0.53680  0.33150  0.76900  Biso   1.000  N 
  N11      1.0000 0.03680  0.16850  0.26900  Biso   1.000  N 
  N12      1.0000 0.46320  0.66850  0.23100  Biso   1.000  N 
  N13      1.0000 0.68280  0.71580  0.10850  Biso   1.000  N 
  N14      1.0000 0.81720  0.21580  0.39150  Biso   1.000  N 
  N15      1.0000 0.31720  0.28420  0.89150  Biso   1.000  N 
  N16      1.0000 0.18280  0.78420  0.60850  Biso   1.000  N 
  N17      1.0000 0.96460  0.85650  0.17770  Biso   1.000  N 
  N18      1.0000 0.53540  0.35650  0.32230  Biso   1.000  N 
  N19      1.0000 0.03540  0.14350  0.82230  Biso   1.000  N 
  N20      1.0000 0.46460  0.64350  0.67770  Biso   1.000  N 
  C1       1.0000 0.98660  0.74550  0.38150  Biso   1.000  C 
  C2       1.0000 0.51340  0.24550  0.11850  Biso   1.000  C 
  C3       1.0000 0.01340  0.25450  0.61850  Biso   1.000  C 
  C4       1.0000 0.48660  0.75450  0.88150  Biso   1.000  C 
  H5       1.0000 0.00580  0.77690  0.33500  Biso   1.000  H 
  H6       1.0000 0.49420  0.27690  0.16500  Biso   1.000  H 
  H7       1.0000 0.99420  0.22310  0.66500  Biso   1.000  H 
  H8       1.0000 0.50580  0.72310  0.83500  Biso   1.000  H 
  H9       1.0000 0.02580  0.69650  0.38420  Biso   1.000  H 
  H10      1.0000 0.47420  0.19650  0.11580  Biso   1.000  H 
  H11      1.0000 0.97420  0.30350  0.61580  Biso   1.000  H 
  H12      1.0000 0.52580  0.80350  0.88420  Biso   1.000  H 
  H13      1.0000 0.00460  0.77390  0.43430  Biso   1.000  H 
  H14      1.0000 0.49540  0.27390  0.06570  Biso   1.000  H 
  H15      1.0000 0.99540  0.22610  0.56570  Biso   1.000  H 
  H16      1.0000 0.50460  0.72610  0.93430  Biso   1.000  H 
  C5       1.0000 0.83240  0.68400  0.42940  Biso   1.000  C 
  C6       1.0000 0.66760  0.18400  0.07060  Biso   1.000  C 
  C7       1.0000 0.16760  0.31600  0.57060  Biso   1.000  C 
  C8       1.0000 0.33240  0.81600  0.92940  Biso   1.000  C 
  C9       1.0000 0.89670  0.64750  0.49680  Biso   1.000  C 
  C10      1.0000 0.60330  0.14750  0.00320  Biso   1.000  C 
  C11      1.0000 0.10330  0.35250  0.50320  Biso   1.000  C 
  C12      1.0000 0.39670  0.85250  0.99680  Biso   1.000  C 
  H17      1.0000 0.97150  0.65380  0.50420  Biso   1.000  H 
  H18      1.0000 0.52850  0.15380  0.99580  Biso   1.000  H 
  H19      1.0000 0.02850  0.34620  0.49580  Biso   1.000  H 
  H20      1.0000 0.47150  0.84620  0.00420  Biso   1.000  H 
  C13      1.0000 0.84730  0.60190  0.55250  Biso   1.000  C 
  C14      1.0000 0.65270  0.10190  0.94750  Biso   1.000  C 
  C15      1.0000 0.15270  0.39810  0.44750  Biso   1.000  C 
  C16      1.0000 0.34730  0.89810  0.05250  Biso   1.000  C 
  H21      1.0000 0.88950  0.57620  0.59730  Biso   1.000  H 
  H22      1.0000 0.61050  0.07620  0.90270  Biso   1.000  H 
  H23      1.0000 0.11050  0.42380  0.40270  Biso   1.000  H 
  H24      1.0000 0.38950  0.92380  0.09730  Biso   1.000  H 
  C17      1.0000 0.73740  0.59370  0.54330  Biso   1.000  C 
  C18      1.0000 0.76260  0.09370  0.95670  Biso   1.000  C 
  C19      1.0000 0.26260  0.40630  0.45670  Biso   1.000  C 
  C20      1.0000 0.23740  0.90630  0.04330  Biso   1.000  C 
  H25      1.0000 0.70580  0.56330  0.58240  Biso   1.000  H 
  H26      1.0000 0.79420  0.06330  0.91760  Biso   1.000  H 
  H27      1.0000 0.29420  0.43670  0.41760  Biso   1.000  H 
  H28      1.0000 0.20580  0.93670  0.08240  Biso   1.000  H 
  C21      1.0000 0.67110  0.63060  0.47490  Biso   1.000  C 
  C22      1.0000 0.82890  0.13060  0.02510  Biso   1.000  C 
  C23      1.0000 0.32890  0.36940  0.52510  Biso   1.000  C 
  C24      1.0000 0.17110  0.86940  0.97490  Biso   1.000  C 
  C25      1.0000 0.71910  0.67610  0.41630  Biso   1.000  C 
  C26      1.0000 0.78090  0.17610  0.08370  Biso   1.000  C 
  C27      1.0000 0.28090  0.32390  0.58370  Biso   1.000  C 
  C28      1.0000 0.21910  0.82390  0.91630  Biso   1.000  C 
  C29      1.0000 0.55590  0.61560  0.47030  Biso   1.000  C 
  C30      1.0000 0.94410  0.11560  0.02970  Biso   1.000  C 
  C31      1.0000 0.44410  0.38440  0.52970  Biso   1.000  C 
  C32      1.0000 0.05590  0.88440  0.97030  Biso   1.000  C 
  H29      1.0000 0.53500  0.57860  0.50860  Biso   1.000  H 
  H30      1.0000 0.96500  0.07860  0.99140  Biso   1.000  H 
  H31      1.0000 0.46500  0.42140  0.49140  Biso   1.000  H 
  H32      1.0000 0.03500  0.92140  0.00860  Biso   1.000  H 
  C33      1.0000 0.36880  0.62010  0.42280  Biso   1.000  C 
  C34      1.0000 0.13120  0.12010  0.07720  Biso   1.000  C 
  C35      1.0000 0.63120  0.37990  0.57720  Biso   1.000  C 
  C36      1.0000 0.86880  0.87990  0.92280  Biso   1.000  C 
  H33      1.0000 0.34600  0.58830  0.37250  Biso   1.000  H 
  H34      1.0000 0.15400  0.08830  0.12750  Biso   1.000  H 
  H35      1.0000 0.65400  0.41170  0.62750  Biso   1.000  H 
  H36      1.0000 0.84600  0.91170  0.87250  Biso   1.000  H 
  H37      1.0000 0.36890  0.58630  0.47250  Biso   1.000  H 
  H38      1.0000 0.13110  0.08630  0.02750  Biso   1.000  H 
  H39      1.0000 0.63110  0.41370  0.52750  Biso   1.000  H 
  H40      1.0000 0.86890  0.91370  0.97250  Biso   1.000  H 
  C37      1.0000 0.28940  0.68370  0.42740  Biso   1.000  C 
  C38      1.0000 0.21060  0.18370  0.07260  Biso   1.000  C 
  C39      1.0000 0.71060  0.31630  0.57260  Biso   1.000  C 
  C40      1.0000 0.78940  0.81630  0.92740  Biso   1.000  C 
  H41      1.0000 0.31610  0.71810  0.47480  Biso   1.000  H 
  H42      1.0000 0.18390  0.21810  0.02520  Biso   1.000  H 
  H43      1.0000 0.68390  0.28190  0.52520  Biso   1.000  H 
  H44      1.0000 0.81610  0.78190  0.97480  Biso   1.000  H 
  H45      1.0000 0.22270  0.66000  0.44060  Biso   1.000  H 
  H46      1.0000 0.27730  0.16000  0.05940  Biso   1.000  H 
  H47      1.0000 0.77730  0.34000  0.55940  Biso   1.000  H 
  H48      1.0000 0.72270  0.84000  0.94060  Biso   1.000  H 
  C41      1.0000 0.26310  0.73430  0.34840  Biso   1.000  C 
  C42      1.0000 0.23690  0.23430  0.15160  Biso   1.000  C 
  C43      1.0000 0.73690  0.26570  0.65160  Biso   1.000  C 
  C44      1.0000 0.76310  0.76570  0.84840  Biso   1.000  C 
  H49      1.0000 0.24160  0.70000  0.29970  Biso   1.000  H 
  H50      1.0000 0.25840  0.20000  0.20030  Biso   1.000  H 
  H51      1.0000 0.75840  0.30000  0.70030  Biso   1.000  H 
  H52      1.0000 0.74160  0.80000  0.79970  Biso   1.000  H 
  H53      1.0000 0.20190  0.76790  0.35560  Biso   1.000  H 
  H54      1.0000 0.29810  0.26790  0.14440  Biso   1.000  H 
  H55      1.0000 0.79810  0.23210  0.64440  Biso   1.000  H 
  H56      1.0000 0.70190  0.73210  0.85560  Biso   1.000  H 
  C45      1.0000 0.32880  0.85490  0.30720  Biso   1.000  C 
  C46      1.0000 0.17120  0.35490  0.19280  Biso   1.000  C 
  C47      1.0000 0.67120  0.14510  0.69280  Biso   1.000  C 
  C48      1.0000 0.82880  0.64510  0.80720  Biso   1.000  C 
  H57      1.0000 0.25690  0.86970  0.30710  Biso   1.000  H 
  H58      1.0000 0.24310  0.36970  0.19290  Biso   1.000  H 
  H59      1.0000 0.74310  0.13030  0.69290  Biso   1.000  H 
  H60      1.0000 0.75690  0.63030  0.80710  Biso   1.000  H 
  C49      1.0000 0.40160  0.91520  0.28180  Biso   1.000  C 
  C50      1.0000 0.09840  0.41520  0.21820  Biso   1.000  C 
  C51      1.0000 0.59840  0.08480  0.71820  Biso   1.000  C 
  C52      1.0000 0.90160  0.58480  0.78180  Biso   1.000  C 
  C53      1.0000 0.35950  0.99230  0.27000  Biso   1.000  C 
  C54      1.0000 0.14050  0.49230  0.23000  Biso   1.000  C 
  C55      1.0000 0.64050  0.00770  0.73000  Biso   1.000  C 
  C56      1.0000 0.85950  0.50770  0.77000  Biso   1.000  C 
  H61      1.0000 0.28930  0.00260  0.28080  Biso   1.000  H 
  H62      1.0000 0.21070  0.50260  0.21920  Biso   1.000  H 
  H63      1.0000 0.71070  0.99740  0.71920  Biso   1.000  H 
  H64      1.0000 0.78930  0.49740  0.78080  Biso   1.000  H 
  C57      1.0000 0.41940  0.05150  0.24340  Biso   1.000  C 
  C58      1.0000 0.08060  0.55150  0.25660  Biso   1.000  C 
  C59      1.0000 0.58060  0.94850  0.75660  Biso   1.000  C 
  C60      1.0000 0.91940  0.44850  0.74340  Biso   1.000  C 
  H65      1.0000 0.39030  0.10220  0.23660  Biso   1.000  H 
  H66      1.0000 0.10970  0.60220  0.26340  Biso   1.000  H 
  H67      1.0000 0.60970  0.89780  0.76340  Biso   1.000  H 
  H68      1.0000 0.89030  0.39780  0.73660  Biso   1.000  H 
  C61      1.0000 0.52410  0.03780  0.22580  Biso   1.000  C 
  C62      1.0000 0.97590  0.53780  0.27420  Biso   1.000  C 
  C63      1.0000 0.47590  0.96220  0.77420  Biso   1.000  C 
  C64      1.0000 0.02410  0.46220  0.72580  Biso   1.000  C 
  H69      1.0000 0.56530  0.07880  0.20780  Biso   1.000  H 
  H70      1.0000 0.93470  0.57880  0.29220  Biso   1.000  H 
  H71      1.0000 0.43470  0.92120  0.79220  Biso   1.000  H 
  H72      1.0000 0.06530  0.42120  0.70780  Biso   1.000  H 
  C65      1.0000 0.56520  0.96340  0.23540  Biso   1.000  C 
  C66      1.0000 0.93480  0.46340  0.26460  Biso   1.000  C 
  C67      1.0000 0.43480  0.03660  0.76460  Biso   1.000  C 
  C68      1.0000 0.06520  0.53660  0.73540  Biso   1.000  C 
  C69      1.0000 0.50700  0.89950  0.26370  Biso   1.000  C 
  C70      1.0000 0.99300  0.39950  0.23630  Biso   1.000  C 
  C71      1.0000 0.49300  0.10050  0.73630  Biso   1.000  C 
  C72      1.0000 0.00700  0.60050  0.76370  Biso   1.000  C 
  C73      1.0000 0.72850  0.00140  0.17900  Biso   1.000  C 
  C74      1.0000 0.77150  0.50140  0.32100  Biso   1.000  C 
  C75      1.0000 0.27150  0.99860  0.82100  Biso   1.000  C 
  C76      1.0000 0.22850  0.49860  0.67900  Biso   1.000  C 
  H73      1.0000 0.79860  0.98060  0.17240  Biso   1.000  H 
  H74      1.0000 0.70140  0.48060  0.32760  Biso   1.000  H 
  H75      1.0000 0.20140  0.01940  0.82760  Biso   1.000  H 
  H76      1.0000 0.29860  0.51940  0.67240  Biso   1.000  H 
  H77      1.0000 0.73670  0.04740  0.21500  Biso   1.000  H 
  H78      1.0000 0.76330  0.54740  0.28500  Biso   1.000  H 
  H79      1.0000 0.26330  0.95260  0.78500  Biso   1.000  H 
  H80      1.0000 0.23670  0.45260  0.71500  Biso   1.000  H 
  H81      1.0000 0.69110  0.01550  0.12390  Biso   1.000  H 
  H82      1.0000 0.80890  0.51550  0.37610  Biso   1.000  H 
  H83      1.0000 0.30890  0.98450  0.87610  Biso   1.000  H 
  H84      1.0000 0.19110  0.48450  0.62390  Biso   1.000  H 
  C77      1.0000 0.81520  0.91850  0.39220  Biso   1.000  C 
  C78      1.0000 0.68480  0.41850  0.10780  Biso   1.000  C 
  C79      1.0000 0.18480  0.08150  0.60780  Biso   1.000  C 
  C80      1.0000 0.31520  0.58150  0.89220  Biso   1.000  C 
  C81      1.0000 0.84800  0.98480  0.45040  Biso   1.000  C 
  C82      1.0000 0.65200  0.48480  0.04960  Biso   1.000  C 
  C83      1.0000 0.15200  0.01520  0.54960  Biso   1.000  C 
  C84      1.0000 0.34800  0.51520  0.95040  Biso   1.000  C 
  H85      1.0000 0.82570  0.03350  0.42060  Biso   1.000  H 
  H86      1.0000 0.67430  0.53350  0.07940  Biso   1.000  H 
  H87      1.0000 0.17430  0.96650  0.57940  Biso   1.000  H 
  H88      1.0000 0.32570  0.46650  0.92060  Biso   1.000  H 
  H89      1.0000 0.92640  0.98520  0.46110  Biso   1.000  H 
  H90      1.0000 0.57360  0.48520  0.03890  Biso   1.000  H 
  H91      1.0000 0.07360  0.01480  0.53890  Biso   1.000  H 
  H92      1.0000 0.42640  0.51480  0.96110  Biso   1.000  H 
  C85      1.0000 0.80620  0.98650  0.53560  Biso   1.000  C 
  C86      1.0000 0.69380  0.48650  0.96440  Biso   1.000  C 
  C87      1.0000 0.19380  0.01350  0.46440  Biso   1.000  C 
  C88      1.0000 0.30620  0.51350  0.03560  Biso   1.000  C 
  H93      1.0000 0.81200  0.04020  0.55760  Biso   1.000  H 
  H94      1.0000 0.68800  0.54020  0.94240  Biso   1.000  H 
  H95      1.0000 0.18800  0.95980  0.44240  Biso   1.000  H 
  H96      1.0000 0.31200  0.45980  0.05760  Biso   1.000  H 
  H97      1.0000 0.73010  0.97260  0.52700  Biso   1.000  H 
  H98      1.0000 0.76990  0.47260  0.97300  Biso   1.000  H 
  H99      1.0000 0.26990  0.02740  0.47300  Biso   1.000  H 
  H100     1.0000 0.23010  0.52740  0.02700  Biso   1.000  H 
  C89      1.0000 0.86390  0.93220  0.60130  Biso   1.000  C 
  C90      1.0000 0.63610  0.43220  0.89870  Biso   1.000  C 
  C91      1.0000 0.13610  0.06780  0.39870  Biso   1.000  C 
  C92      1.0000 0.36390  0.56780  0.10130  Biso   1.000  C 
  C93      1.0000 0.93510  0.96090  0.67020  Biso   1.000  C 
  C94      1.0000 0.56490  0.46090  0.82980  Biso   1.000  C 
  C95      1.0000 0.06490  0.03910  0.32980  Biso   1.000  C 
  C96      1.0000 0.43510  0.53910  0.17020  Biso   1.000  C 
  H101     1.0000 0.95110  0.01470  0.67440  Biso   1.000  H 
  H102     1.0000 0.54890  0.51470  0.82560  Biso   1.000  H 
  H103     1.0000 0.04890  0.98530  0.32560  Biso   1.000  H 
  H104     1.0000 0.45110  0.48530  0.17440  Biso   1.000  H 
  C97      1.0000 0.98150  0.90930  0.73160  Biso   1.000  C 
  C98      1.0000 0.51850  0.40930  0.76840  Biso   1.000  C 
  C99      1.0000 0.01850  0.09070  0.26840  Biso   1.000  C 
  C100     1.0000 0.48150  0.59070  0.23160  Biso   1.000  C 
  H105     1.0000 0.02880  0.92990  0.77670  Biso   1.000  H 
  H106     1.0000 0.47120  0.42990  0.72330  Biso   1.000  H 
  H107     1.0000 0.97120  0.07010  0.22330  Biso   1.000  H 
  H108     1.0000 0.52880  0.57010  0.27670  Biso   1.000  H 
  C101     1.0000 0.89960  0.80350  0.66290  Biso   1.000  C 
  C102     1.0000 0.60040  0.30350  0.83710  Biso   1.000  C 
  C103     1.0000 0.10040  0.19650  0.33710  Biso   1.000  C 
  C104     1.0000 0.39960  0.69650  0.16290  Biso   1.000  C 
  H109     1.0000 0.88960  0.74910  0.65850  Biso   1.000  H 
  H110     1.0000 0.61040  0.24910  0.84150  Biso   1.000  H 
  H111     1.0000 0.11040  0.25090  0.34150  Biso   1.000  H 
  H112     1.0000 0.38960  0.75090  0.15850  Biso   1.000  H 
  C105     1.0000 0.84830  0.85040  0.59900  Biso   1.000  C 
  C106     1.0000 0.65170  0.35040  0.90100  Biso   1.000  C 
  C107     1.0000 0.15170  0.14960  0.40100  Biso   1.000  C 
  C108     1.0000 0.34830  0.64960  0.09900  Biso   1.000  C 
  H113     1.0000 0.80300  0.82760  0.55400  Biso   1.000  H 
  H114     1.0000 0.69700  0.32760  0.94600  Biso   1.000  H 
  H115     1.0000 0.19700  0.17240  0.44600  Biso   1.000  H 
  H116     1.0000 0.30300  0.67240  0.05400  Biso   1.000  H 
  C109     1.0000 0.51790  0.82550  0.53260  Biso   1.000  C 
  C110     1.0000 0.98210  0.32550  0.96740  Biso   1.000  C 
  C111     1.0000 0.48210  0.17450  0.46740  Biso   1.000  C 
  C112     1.0000 0.01790  0.67450  0.03260  Biso   1.000  C 
  H117     1.0000 0.48010  0.77810  0.54680  Biso   1.000  H 
  H118     1.0000 0.01990  0.27810  0.95320  Biso   1.000  H 
  H119     1.0000 0.51990  0.22190  0.45320  Biso   1.000  H 
  H120     1.0000 0.98010  0.72190  0.04680  Biso   1.000  H 
  H121     1.0000 0.58230  0.83050  0.57410  Biso   1.000  H 
  H122     1.0000 0.91770  0.33050  0.92590  Biso   1.000  H 
  H123     1.0000 0.41770  0.16950  0.42590  Biso   1.000  H 
  H124     1.0000 0.08230  0.66950  0.07410  Biso   1.000  H 
  C113     1.0000 0.45100  0.89110  0.54080  Biso   1.000  C 
  C114     1.0000 0.04900  0.39110  0.95920  Biso   1.000  C 
  C115     1.0000 0.54900  0.10890  0.45920  Biso   1.000  C 
  C116     1.0000 0.95100  0.60890  0.04080  Biso   1.000  C 
  H125     1.0000 0.42660  0.89000  0.59610  Biso   1.000  H 
  H126     1.0000 0.07340  0.39000  0.90390  Biso   1.000  H 
  H127     1.0000 0.57340  0.11000  0.40390  Biso   1.000  H 
  H128     1.0000 0.92660  0.61000  0.09610  Biso   1.000  H 
  H129     1.0000 0.38970  0.88920  0.49710  Biso   1.000  H 
  H130     1.0000 0.11030  0.38920  0.00290  Biso   1.000  H 
  H131     1.0000 0.61030  0.11080  0.50290  Biso   1.000  H 
  H132     1.0000 0.88970  0.61080  0.99710  Biso   1.000  H 
  H133     1.0000 0.49100  0.93890  0.53500  Biso   1.000  H 
  H134     1.0000 0.00900  0.43890  0.96500  Biso   1.000  H 
  H135     1.0000 0.50900  0.06110  0.46500  Biso   1.000  H 
  H136     1.0000 0.99100  0.56110  0.03500  Biso   1.000  H 
