data_image0
_cell_length_a       14.6252
_cell_length_b       16.5703
_cell_length_c       10.4179
_cell_angle_alpha    90
_cell_angle_beta     90
_cell_angle_gamma    90

_symmetry_space_group_name_H-M    "P 1"
_symmetry_int_tables_number       1

loop_
  _symmetry_equiv_pos_as_xyz
  'x, y, z'

loop_
  _atom_site_label
  _atom_site_occupancy
  _atom_site_fract_x
  _atom_site_fract_y
  _atom_site_fract_z
  _atom_site_thermal_displace_type
  _atom_site_B_iso_or_equiv
  _atom_site_type_symbol
  Zn1      1.0000 0.34048  0.25255  0.95685  Biso   1.000  Zn
  N1       1.0000 0.42900  0.20280  0.82020  Biso   1.000  N 
  N2       1.0000 0.47590  0.24840  0.73480  Biso   1.000  N 
  C1       1.0000 0.53730  0.19860  0.67880  Biso   1.000  C 
  H1       1.0000 0.58090  0.21320  0.61810  Biso   1.000  H 
  N3       1.0000 0.52340  0.12040  0.72900  Biso   1.000  N 
  C2       1.0000 0.45590  0.12730  0.81600  Biso   1.000  C 
  H2       1.0000 0.43220  0.08540  0.86520  Biso   1.000  H 
  C3       1.0000 0.57340  0.05200  0.68800  Biso   1.000  C 
  C4       1.0000 0.66210  0.05840  0.65610  Biso   1.000  C 
  H3       1.0000 0.69020  0.10870  0.65900  Biso   1.000  H 
  C5       1.0000 0.71220  0.99210  0.61940  Biso   1.000  C 
  H4       1.0000 0.77060  0.99840  0.58560  Biso   1.000  H 
  C6       1.0000 0.67490  0.91570  0.63320  Biso   1.000  C 
  C7       1.0000 0.58150  0.90840  0.66440  Biso   1.000  C 
  C8       1.0000 0.53090  0.97590  0.69610  Biso   1.000  C 
  H5       1.0000 0.47030  0.97120  0.72210  Biso   1.000  H 
  H6       1.0000 0.55390  0.85790  0.66380  Biso   1.000  H 
  C9       1.0000 0.73400  0.84220  0.60350  Biso   1.000  C 
  O1       1.0000 0.79850  0.85200  0.52690  Biso   1.000  O 
  Zn2      1.0000 0.84048  0.74745  0.45685  Biso   1.000  Zn
  O2       1.0000 0.88230  0.61010  0.44680  Biso   1.000  O 
  C10      1.0000 0.92880  0.62670  0.54050  Biso   1.000  C 
  O3       1.0000 0.93610  0.69750  0.58950  Biso   1.000  O 
  C11      1.0000 0.97870  0.56040  0.60610  Biso   1.000  C 
  C12      1.0000 0.95190  0.48140  0.58500  Biso   1.000  C 
  H7       1.0000 0.90230  0.47050  0.53190  Biso   1.000  H 
  C13      1.0000 0.99980  0.41730  0.64410  Biso   1.000  C 
  H8       1.0000 0.97970  0.36470  0.63090  Biso   1.000  H 
  C14      1.0000 0.07390  0.43000  0.71930  Biso   1.000  C 
  N4       1.0000 0.12180  0.36480  0.77360  Biso   1.000  N 
  C15      1.0000 0.20800  0.36090  0.81300  Biso   1.000  C 
  H9       1.0000 0.25050  0.40230  0.80430  Biso   1.000  H 
  N5       1.0000 0.22430  0.29380  0.86360  Biso   1.000  N 
  N6       1.0000 0.14670  0.24660  0.85720  Biso   1.000  N 
  C16      1.0000 0.08910  0.29150  0.79350  Biso   1.000  C 
  H10      1.0000 0.03210  0.27410  0.76550  Biso   1.000  H 
  C17      1.0000 0.10510  0.51390  0.73490  Biso   1.000  C 
  H11      1.0000 0.15720  0.52480  0.78320  Biso   1.000  H 
  C18      1.0000 0.05990  0.57360  0.68090  Biso   1.000  C 
  H12      1.0000 0.08120  0.62600  0.69140  Biso   1.000  H 
  N7       1.0000 0.72430  0.70620  0.36360  Biso   1.000  N 
  N8       1.0000 0.64670  0.75340  0.35720  Biso   1.000  N 
  C19      1.0000 0.58910  0.70850  0.29350  Biso   1.000  C 
  C20      1.0000 0.70800  0.63910  0.31300  Biso   1.000  C 
  H13      1.0000 0.75050  0.59770  0.30430  Biso   1.000  H 
  N9       1.0000 0.62180  0.63520  0.27360  Biso   1.000  N 
  C21      1.0000 0.57390  0.57000  0.21930  Biso   1.000  C 
  C22      1.0000 0.60510  0.48610  0.23490  Biso   1.000  C 
  H14      1.0000 0.65720  0.47520  0.28320  Biso   1.000  H 
  C23      1.0000 0.55990  0.42640  0.18090  Biso   1.000  C 
  H15      1.0000 0.58120  0.37400  0.19140  Biso   1.000  H 
  C24      1.0000 0.47870  0.43960  0.10610  Biso   1.000  C 
  C25      1.0000 0.42880  0.37330  0.04050  Biso   1.000  C 
  O4       1.0000 0.43610  0.30250  0.08950  Biso   1.000  O 
  O5       1.0000 0.38230  0.38990  0.94680  Biso   1.000  O 
  C26      1.0000 0.45190  0.51860  0.08500  Biso   1.000  C 
  H16      1.0000 0.40230  0.52950  0.03190  Biso   1.000  H 
  C27      1.0000 0.49980  0.58270  0.14410  Biso   1.000  C 
  H17      1.0000 0.47970  0.63530  0.13090  Biso   1.000  H 
  H18      1.0000 0.53210  0.72590  0.26550  Biso   1.000  H 
  N10      1.0000 0.92900  0.79720  0.32020  Biso   1.000  N 
  C28      1.0000 0.95590  0.87270  0.31600  Biso   1.000  C 
  H19      1.0000 0.93220  0.91460  0.36520  Biso   1.000  H 
  N11      1.0000 0.02340  0.87960  0.22900  Biso   1.000  N 
  C29      1.0000 0.03730  0.80140  0.17880  Biso   1.000  C 
  H20      1.0000 0.08090  0.78680  0.11810  Biso   1.000  H 
  N12      1.0000 0.97590  0.75160  0.23480  Biso   1.000  N 
  C30      1.0000 0.07340  0.94800  0.18800  Biso   1.000  C 
  C31      1.0000 0.16210  0.94160  0.15610  Biso   1.000  C 
  H21      1.0000 0.19020  0.89130  0.15900  Biso   1.000  H 
  C32      1.0000 0.21220  0.00790  0.11940  Biso   1.000  C 
  H22      1.0000 0.27060  0.00160  0.08560  Biso   1.000  H 
  C33      1.0000 0.17490  0.08430  0.13320  Biso   1.000  C 
  C34      1.0000 0.08150  0.09160  0.16440  Biso   1.000  C 
  C35      1.0000 0.03090  0.02410  0.19610  Biso   1.000  C 
  H23      1.0000 0.97030  0.02880  0.22210  Biso   1.000  H 
  H24      1.0000 0.05390  0.14210  0.16380  Biso   1.000  H 
  C36      1.0000 0.23400  0.15780  0.10350  Biso   1.000  C 
  O6       1.0000 0.29850  0.14800  0.02690  Biso   1.000  O 
  O7       1.0000 0.21570  0.22360  0.15000  Biso   1.000  O 
  O8       1.0000 0.71570  0.77640  0.65000  Biso   1.000  O 
