data_image0
_cell_length_a       16.075
_cell_length_b       17.3256
_cell_length_c       23.2488
_cell_angle_alpha    90
_cell_angle_beta     103.316
_cell_angle_gamma    90

_symmetry_space_group_name_H-M    "P 1"
_symmetry_int_tables_number       1

loop_
  _symmetry_equiv_pos_as_xyz
  'x, y, z'

loop_
  _atom_site_label
  _atom_site_occupancy
  _atom_site_fract_x
  _atom_site_fract_y
  _atom_site_fract_z
  _atom_site_thermal_displace_type
  _atom_site_B_iso_or_equiv
  _atom_site_type_symbol
  Mo1      1.0000 0.72924  0.19198  0.27136  Biso   1.000  Mo
  O1       1.0000 0.74820  0.08800  0.21622  Biso   1.000  O 
  Mo2      1.0000 0.67950  0.15294  0.12524  Biso   1.000  Mo
  O2       1.0000 0.63780  0.20810  0.06493  Biso   1.000  O 
  O3       1.0000 0.75060  0.07990  0.09510  Biso   1.000  O 
  Mo3      1.0000 0.85518  0.02836  0.10259  Biso   1.000  Mo
  O4       1.0000 0.91010  0.12750  0.16681  Biso   1.000  O 
  Mo4      1.0000 0.01832  0.06322  0.22191  Biso   1.000  Mo
  O5       1.0000 0.08950  0.10620  0.18803  Biso   1.000  O 
  O6       1.0000 0.01760  0.14090  0.27927  Biso   1.000  O 
  Mo5      1.0000 0.93473  0.14422  0.32825  Biso   1.000  Mo
  O7       1.0000 0.81600  0.13970  0.32922  Biso   1.000  O 
  O8       1.0000 0.97720  0.07780  0.38133  Biso   1.000  O 
  O9       1.0000 0.89940  0.04040  0.26284  Biso   1.000  O 
  P1       1.0000 0.80650  0.01721  0.23431  Biso   1.000  P 
  O10      1.0000 0.80490  0.96740  0.18016  Biso   1.000  O 
  Ni1      1.0000 0.79051  0.86098  0.13800  Biso   1.000  Ni
  N1       1.0000 0.77730  0.77250  0.07940  Biso   1.000  N 
  C1       1.0000 0.70010  0.76490  0.04230  Biso   1.000  C 
  C2       1.0000 0.63550  0.82040  0.05330  Biso   1.000  C 
  C3       1.0000 0.54880  0.81750  0.02730  Biso   1.000  C 
  H1       1.0000 0.52590  0.77530  0.00260  Biso   1.000  H 
  C4       1.0000 0.49620  0.87610  0.03750  Biso   1.000  C 
  C5       1.0000 0.53070  0.93470  0.07550  Biso   1.000  C 
  H2       1.0000 0.49610  0.97680  0.08210  Biso   1.000  H 
  C6       1.0000 0.61570  0.93160  0.10370  Biso   1.000  C 
  H3       1.0000 0.63870  0.97050  0.13160  Biso   1.000  H 
  N2       1.0000 0.66660  0.87580  0.09300  Biso   1.000  N 
  H4       1.0000 0.43720  0.87600  0.01860  Biso   1.000  H 
  C7       1.0000 0.69340  0.70880  0.99770  Biso   1.000  C 
  C8       1.0000 0.62820  0.70110  0.94120  Biso   1.000  C 
  C9       1.0000 0.58150  0.76090  0.91040  Biso   1.000  C 
  C10      1.0000 0.52060  0.74540  0.85890  Biso   1.000  C 
  C11      1.0000 0.50880  0.67070  0.83940  Biso   1.000  C 
  H5       1.0000 0.46440  0.65820  0.80600  Biso   1.000  H 
  C12      1.0000 0.56230  0.61350  0.86890  Biso   1.000  C 
  H6       1.0000 0.55630  0.56240  0.85360  Biso   1.000  H 
  N3       1.0000 0.62250  0.62800  0.91860  Biso   1.000  N 
  Ni2      1.0000 0.73343  0.56383  0.94947  Biso   1.000  Ni
  N4       1.0000 0.67320  0.48190  0.98910  Biso   1.000  N 
  C13      1.0000 0.65920  0.41290  0.96100  Biso   1.000  C 
  C14      1.0000 0.69380  0.40900  0.90620  Biso   1.000  C 
  C15      1.0000 0.70310  0.34500  0.87160  Biso   1.000  C 
  C16      1.0000 0.68830  0.26220  0.88540  Biso   1.000  C 
  C17      1.0000 0.63120  0.21570  0.84660  Biso   1.000  C 
  C18      1.0000 0.62980  0.13740  0.85860  Biso   1.000  C 
  H7       1.0000 0.59170  0.10390  0.83270  Biso   1.000  H 
  C19      1.0000 0.68480  0.10900  0.90870  Biso   1.000  C 
  H8       1.0000 0.68670  0.05530  0.91720  Biso   1.000  H 
  C20      1.0000 0.73700  0.16000  0.94630  Biso   1.000  C 
  H9       1.0000 0.77270  0.14050  0.98170  Biso   1.000  H 
  N5       1.0000 0.73970  0.23580  0.93500  Biso   1.000  N 
  H10      1.0000 0.59380  0.23700  0.81270  Biso   1.000  H 
  N6       1.0000 0.73810  0.35320  0.82460  Biso   1.000  N 
  C21      1.0000 0.76520  0.42220  0.81090  Biso   1.000  C 
  C22      1.0000 0.75380  0.48700  0.84380  Biso   1.000  C 
  C23      1.0000 0.77600  0.56860  0.83460  Biso   1.000  C 
  C24      1.0000 0.78260  0.59950  0.78150  Biso   1.000  C 
  H11      1.0000 0.77480  0.56760  0.74740  Biso   1.000  H 
  C25      1.0000 0.80080  0.67780  0.77760  Biso   1.000  C 
  H12      1.0000 0.80350  0.70040  0.74090  Biso   1.000  H 
  C26      1.0000 0.81470  0.72210  0.82880  Biso   1.000  C 
  C27      1.0000 0.80600  0.68810  0.88080  Biso   1.000  C 
  H13      1.0000 0.81500  0.71840  0.91570  Biso   1.000  H 
  N7       1.0000 0.78510  0.61290  0.88340  Biso   1.000  N 
  H14      1.0000 0.82990  0.77500  0.82800  Biso   1.000  H 
  N8       1.0000 0.71990  0.47760  0.89080  Biso   1.000  N 
  C28      1.0000 0.81600  0.42360  0.76440  Biso   1.000  C 
  N9       1.0000 0.89940  0.43620  0.78570  Biso   1.000  N 
  C29      1.0000 0.94920  0.43710  0.74730  Biso   1.000  C 
  H15      1.0000 0.00860  0.44610  0.76210  Biso   1.000  H 
  C30      1.0000 0.92030  0.42590  0.68750  Biso   1.000  C 
  H16      1.0000 0.95870  0.42600  0.66190  Biso   1.000  H 
  C31      1.0000 0.83520  0.41470  0.66600  Biso   1.000  C 
  C32      1.0000 0.78130  0.41350  0.70470  Biso   1.000  C 
  H17      1.0000 0.72160  0.40590  0.69040  Biso   1.000  H 
  H18      1.0000 0.81280  0.40760  0.62480  Biso   1.000  H 
  C33      1.0000 0.61390  0.35510  0.98090  Biso   1.000  C 
  H19      1.0000 0.60320  0.30740  0.96020  Biso   1.000  H 
  C34      1.0000 0.58400  0.36780  0.03170  Biso   1.000  C 
  H20      1.0000 0.55440  0.32820  0.04700  Biso   1.000  H 
  C35      1.0000 0.59780  0.43850  0.05980  Biso   1.000  C 
  H21      1.0000 0.57670  0.44860  0.09400  Biso   1.000  H 
  C36      1.0000 0.64280  0.49400  0.03720  Biso   1.000  C 
  H22      1.0000 0.65240  0.54270  0.05640  Biso   1.000  H 
  N10      1.0000 0.75300  0.65350  0.00550  Biso   1.000  N 
  C37      1.0000 0.82580  0.65630  0.04700  Biso   1.000  C 
  C38      1.0000 0.84300  0.72440  0.08020  Biso   1.000  C 
  C39      1.0000 0.92530  0.75500  0.11630  Biso   1.000  C 
  C40      1.0000 0.00200  0.73390  0.10920  Biso   1.000  C 
  H23      1.0000 0.00780  0.69800  0.07950  Biso   1.000  H 
  C41      1.0000 0.07620  0.76740  0.14840  Biso   1.000  C 
  H24      1.0000 0.13260  0.75350  0.14620  Biso   1.000  H 
  C42      1.0000 0.06120  0.82040  0.18880  Biso   1.000  C 
  H25      1.0000 0.10860  0.84160  0.21640  Biso   1.000  H 
  C43      1.0000 0.98230  0.84330  0.19090  Biso   1.000  C 
  H26      1.0000 0.97520  0.88180  0.21840  Biso   1.000  H 
  N11      1.0000 0.91440  0.81310  0.15510  Biso   1.000  N 
  C44      1.0000 0.87600  0.58340  0.05180  Biso   1.000  C 
  N12      1.0000 0.85040  0.53540  0.00520  Biso   1.000  N 
  C45      1.0000 0.89100  0.46770  0.00620  Biso   1.000  C 
  C46      1.0000 0.95960  0.44520  0.05180  Biso   1.000  C 
  C47      1.0000 0.98290  0.49400  0.09900  Biso   1.000  C 
  C48      1.0000 0.94090  0.56450  0.09980  Biso   1.000  C 
  H27      1.0000 0.95660  0.59850  0.13260  Biso   1.000  H 
  H28      1.0000 0.02800  0.47980  0.13150  Biso   1.000  H 
  H29      1.0000 0.98890  0.39790  0.05000  Biso   1.000  H 
  H30      1.0000 0.87210  0.43310  0.97410  Biso   1.000  H 
  H31      1.0000 0.48760  0.78600  0.83740  Biso   1.000  H 
  H32      1.0000 0.59100  0.81240  0.92440  Biso   1.000  H 
  O11      1.0000 0.76160  0.78500  0.19968  Biso   1.000  O 
  Mo6      1.0000 0.77076  0.69198  0.22864  Biso   1.000  Mo
  O12      1.0000 0.68400  0.63970  0.17078  Biso   1.000  O 
  Mo7      1.0000 0.56527  0.64422  0.17175  Biso   1.000  Mo
  O13      1.0000 0.48240  0.64090  0.22073  Biso   1.000  O 
  Mo8      1.0000 0.48168  0.56322  0.27809  Biso   1.000  Mo
  O14      1.0000 0.42550  0.49030  0.23706  Biso   1.000  O 
  O15      1.0000 0.41050  0.60620  0.31197  Biso   1.000  O 
  O16      1.0000 0.60060  0.54040  0.23716  Biso   1.000  O 
  P2       1.0000 0.69350  0.51721  0.26569  Biso   1.000  P 
  C49      1.0000 0.73530  0.46290  0.21300  Biso   1.000  C 
  H33      1.0000 0.69930  0.41650  0.20140  Biso   1.000  H 
  H34      1.0000 0.73190  0.49470  0.17720  Biso   1.000  H 
  C50      1.0000 0.82740  0.43790  0.23700  Biso   1.000  C 
  C51      1.0000 0.85910  0.39090  0.19130  Biso   1.000  C 
  H35      1.0000 0.81590  0.35120  0.17470  Biso   1.000  H 
  H36      1.0000 0.86520  0.42530  0.15850  Biso   1.000  H 
  C52      1.0000 0.94520  0.35100  0.21660  Biso   1.000  C 
  H37      1.0000 0.99210  0.38790  0.21620  Biso   1.000  H 
  H38      1.0000 0.94820  0.33650  0.25820  Biso   1.000  H 
  C53      1.0000 0.95840  0.27840  0.18160  Biso   1.000  C 
  H39      1.0000 0.95760  0.29300  0.14030  Biso   1.000  H 
  H40      1.0000 0.01500  0.25570  0.19930  Biso   1.000  H 
  P3       1.0000 0.87620  0.20741  0.18189  Biso   1.000  P 
  O17      1.0000 0.79710  0.22410  0.13403  Biso   1.000  O 
  O18      1.0000 0.85850  0.20790  0.24392  Biso   1.000  O 
  H41      1.0000 0.83130  0.40650  0.27320  Biso   1.000  H 
  H42      1.0000 0.86400  0.48400  0.24780  Biso   1.000  H 
  O19      1.0000 0.69510  0.46740  0.31984  Biso   1.000  O 
  Mo9      1.0000 0.64482  0.52836  0.39741  Biso   1.000  Mo
  O20      1.0000 0.67630  0.43680  0.42690  Biso   1.000  O 
  Ni3      1.0000 0.70949  0.36098  0.36200  Biso   1.000  Ni
  O21      1.0000 0.73840  0.28500  0.30032  Biso   1.000  O 
  N13      1.0000 0.72270  0.27250  0.42060  Biso   1.000  N 
  C54      1.0000 0.65700  0.22440  0.41980  Biso   1.000  C 
  C55      1.0000 0.67420  0.15630  0.45300  Biso   1.000  C 
  N14      1.0000 0.74700  0.15350  0.49450  Biso   1.000  N 
  C56      1.0000 0.80660  0.20880  0.50230  Biso   1.000  C 
  C57      1.0000 0.87180  0.20110  0.55880  Biso   1.000  C 
  C58      1.0000 0.91850  0.26090  0.58960  Biso   1.000  C 
  C59      1.0000 0.97940  0.24540  0.64110  Biso   1.000  C 
  C60      1.0000 0.99120  0.17070  0.66060  Biso   1.000  C 
  C61      1.0000 0.93770  0.11350  0.63110  Biso   1.000  C 
  H43      1.0000 0.94370  0.06240  0.64640  Biso   1.000  H 
  N15      1.0000 0.87750  0.12800  0.58140  Biso   1.000  N 
  Ni4      1.0000 0.76657  0.06383  0.55053  Biso   1.000  Ni
  N16      1.0000 0.64960  0.03540  0.49480  Biso   1.000  N 
  C62      1.0000 0.62400  0.08340  0.44820  Biso   1.000  C 
  C63      1.0000 0.55910  0.06450  0.40020  Biso   1.000  C 
  H44      1.0000 0.54340  0.09850  0.36740  Biso   1.000  H 
  C64      1.0000 0.51710  0.99400  0.40100  Biso   1.000  C 
  H45      1.0000 0.47200  0.97980  0.36850  Biso   1.000  H 
  C65      1.0000 0.54040  0.94520  0.44820  Biso   1.000  C 
  H46      1.0000 0.51110  0.89790  0.45000  Biso   1.000  H 
  C66      1.0000 0.60900  0.96770  0.49380  Biso   1.000  C 
  H47      1.0000 0.62790  0.93310  0.52590  Biso   1.000  H 
  N17      1.0000 0.71490  0.11290  0.61660  Biso   1.000  N 
  C67      1.0000 0.69400  0.18810  0.61920  Biso   1.000  C 
  H48      1.0000 0.68500  0.21840  0.58430  Biso   1.000  H 
  C68      1.0000 0.68530  0.22210  0.67120  Biso   1.000  C 
  H49      1.0000 0.67010  0.27500  0.67200  Biso   1.000  H 
  C69      1.0000 0.69920  0.17780  0.72240  Biso   1.000  C 
  H50      1.0000 0.69650  0.20040  0.75910  Biso   1.000  H 
  C70      1.0000 0.71740  0.09950  0.71850  Biso   1.000  C 
  H51      1.0000 0.72520  0.06760  0.75260  Biso   1.000  H 
  C71      1.0000 0.72400  0.06860  0.66540  Biso   1.000  C 
  C72      1.0000 0.74620  0.98700  0.65620  Biso   1.000  C 
  C73      1.0000 0.73480  0.92220  0.68910  Biso   1.000  C 
  N18      1.0000 0.76190  0.85320  0.67540  Biso   1.000  N 
  C74      1.0000 0.79690  0.84500  0.62840  Biso   1.000  C 
  C75      1.0000 0.81170  0.76220  0.61460  Biso   1.000  C 
  C76      1.0000 0.86880  0.71570  0.65340  Biso   1.000  C 
  C77      1.0000 0.87020  0.63740  0.64140  Biso   1.000  C 
  C78      1.0000 0.81520  0.60900  0.59130  Biso   1.000  C 
  H52      1.0000 0.81330  0.55530  0.58280  Biso   1.000  H 
  C79      1.0000 0.76300  0.66000  0.55370  Biso   1.000  C 
  H53      1.0000 0.72730  0.64050  0.51830  Biso   1.000  H 
  N19      1.0000 0.76030  0.73580  0.56500  Biso   1.000  N 
  H54      1.0000 0.90830  0.60390  0.66730  Biso   1.000  H 
  H55      1.0000 0.90620  0.73700  0.68730  Biso   1.000  H 
  C80      1.0000 0.80620  0.90900  0.59380  Biso   1.000  C 
  N20      1.0000 0.78010  0.97760  0.60920  Biso   1.000  N 
  C81      1.0000 0.84080  0.91290  0.53900  Biso   1.000  C 
  N21      1.0000 0.82680  0.98190  0.51090  Biso   1.000  N 
  C82      1.0000 0.85720  0.99400  0.46280  Biso   1.000  C 
  C83      1.0000 0.90220  0.93850  0.44020  Biso   1.000  C 
  C84      1.0000 0.91600  0.86780  0.46830  Biso   1.000  C 
  H56      1.0000 0.94560  0.82820  0.45300  Biso   1.000  H 
  C85      1.0000 0.88610  0.85510  0.51910  Biso   1.000  C 
  H57      1.0000 0.89680  0.80740  0.53980  Biso   1.000  H 
  H58      1.0000 0.92330  0.94860  0.40600  Biso   1.000  H 
  H59      1.0000 0.84760  0.04270  0.44360  Biso   1.000  H 
  C86      1.0000 0.68400  0.92360  0.73560  Biso   1.000  C 
  N22      1.0000 0.60060  0.93620  0.71430  Biso   1.000  N 
  C87      1.0000 0.55080  0.93710  0.75270  Biso   1.000  C 
  H60      1.0000 0.49140  0.94610  0.73790  Biso   1.000  H 
  C88      1.0000 0.57970  0.92590  0.81250  Biso   1.000  C 
  H61      1.0000 0.54130  0.92600  0.83810  Biso   1.000  H 
  C89      1.0000 0.66480  0.91470  0.83400  Biso   1.000  C 
  H62      1.0000 0.68720  0.90760  0.87520  Biso   1.000  H 
  C90      1.0000 0.71870  0.91350  0.79530  Biso   1.000  C 
  H63      1.0000 0.77840  0.90590  0.80960  Biso   1.000  H 
  H64      1.0000 0.03560  0.15820  0.69400  Biso   1.000  H 
  H65      1.0000 0.01240  0.28600  0.66260  Biso   1.000  H 
  H66      1.0000 0.90900  0.31240  0.57560  Biso   1.000  H 
  C91      1.0000 0.79990  0.26490  0.45770  Biso   1.000  C 
  C92      1.0000 0.86450  0.32040  0.44670  Biso   1.000  C 
  C93      1.0000 0.95120  0.31750  0.47270  Biso   1.000  C 
  H67      1.0000 0.97410  0.27530  0.49740  Biso   1.000  H 
  C94      1.0000 0.00380  0.37610  0.46250  Biso   1.000  C 
  H68      1.0000 0.06280  0.37600  0.48140  Biso   1.000  H 
  C95      1.0000 0.96930  0.43470  0.42450  Biso   1.000  C 
  C96      1.0000 0.88430  0.43160  0.39630  Biso   1.000  C 
  H69      1.0000 0.86130  0.47050  0.36840  Biso   1.000  H 
  N23      1.0000 0.83340  0.37580  0.40700  Biso   1.000  N 
  H70      1.0000 0.00390  0.47680  0.41790  Biso   1.000  H 
  C97      1.0000 0.57470  0.25500  0.38370  Biso   1.000  C 
  N24      1.0000 0.58560  0.31310  0.34490  Biso   1.000  N 
  C98      1.0000 0.51770  0.34330  0.30910  Biso   1.000  C 
  C99      1.0000 0.43880  0.32040  0.31120  Biso   1.000  C 
  C100     1.0000 0.42380  0.26740  0.35160  Biso   1.000  C 
  C101     1.0000 0.49800  0.23390  0.39080  Biso   1.000  C 
  H71      1.0000 0.49220  0.19800  0.42050  Biso   1.000  H 
  H72      1.0000 0.36740  0.25350  0.35380  Biso   1.000  H 
  H73      1.0000 0.39140  0.34160  0.28360  Biso   1.000  H 
  H74      1.0000 0.52480  0.38180  0.28160  Biso   1.000  H 
  O22      1.0000 0.54070  0.49770  0.34406  Biso   1.000  O 
  O23      1.0000 0.60680  0.57050  0.45169  Biso   1.000  O 
  O24      1.0000 0.58990  0.62750  0.33319  Biso   1.000  O 
  P4       1.0000 0.62380  0.70741  0.31811  Biso   1.000  P 
  C102     1.0000 0.54160  0.77840  0.31840  Biso   1.000  C 
  H75      1.0000 0.48500  0.75570  0.30070  Biso   1.000  H 
  H76      1.0000 0.54240  0.79300  0.35970  Biso   1.000  H 
  C103     1.0000 0.55480  0.85100  0.28340  Biso   1.000  C 
  H77      1.0000 0.50790  0.88790  0.28380  Biso   1.000  H 
  H78      1.0000 0.55180  0.83650  0.24180  Biso   1.000  H 
  C104     1.0000 0.64090  0.89090  0.30870  Biso   1.000  C 
  H79      1.0000 0.63480  0.92530  0.34150  Biso   1.000  H 
  H80      1.0000 0.68410  0.85120  0.32530  Biso   1.000  H 
  C105     1.0000 0.67260  0.93790  0.26300  Biso   1.000  C 
  H81      1.0000 0.66870  0.90650  0.22680  Biso   1.000  H 
  H82      1.0000 0.63600  0.98400  0.25220  Biso   1.000  H 
  C106     1.0000 0.76470  0.96290  0.28700  Biso   1.000  C 
  H83      1.0000 0.76810  0.99470  0.32280  Biso   1.000  H 
  H84      1.0000 0.80070  0.91650  0.29860  Biso   1.000  H 
  O25      1.0000 0.70290  0.72410  0.36597  Biso   1.000  O 
  Mo10     1.0000 0.82050  0.65294  0.37476  Biso   1.000  Mo
  O26      1.0000 0.74940  0.57990  0.40490  Biso   1.000  O 
  O27      1.0000 0.75180  0.58800  0.28378  Biso   1.000  O 
  O28      1.0000 0.90620  0.59460  0.37191  Biso   1.000  O 
  O29      1.0000 0.82490  0.71700  0.30826  Biso   1.000  O 
  O30      1.0000 0.86220  0.70810  0.43507  Biso   1.000  O 
  O31      1.0000 0.64150  0.70790  0.25608  Biso   1.000  O 
  O32      1.0000 0.53610  0.73120  0.13801  Biso   1.000  O 
  O33      1.0000 0.52280  0.57780  0.11867  Biso   1.000  O 
  O34      1.0000 0.85490  0.65370  0.20578  Biso   1.000  O 
  O35      1.0000 0.82370  0.93680  0.07310  Biso   1.000  O 
  O36      1.0000 0.96390  0.23120  0.36199  Biso   1.000  O 
  O37      1.0000 0.95930  0.99770  0.15594  Biso   1.000  O 
  O38      1.0000 0.07450  0.99030  0.26294  Biso   1.000  O 
  O39      1.0000 0.89320  0.07050  0.04831  Biso   1.000  O 
  O40      1.0000 0.59380  0.09460  0.12809  Biso   1.000  O 
  O41      1.0000 0.67510  0.21700  0.19174  Biso   1.000  O 
  O42      1.0000 0.64510  0.15370  0.29422  Biso   1.000  O 
