data_image0
_cell_length_a       25.669
_cell_length_b       25.669
_cell_length_c       25.669
_cell_angle_alpha    90
_cell_angle_beta     90
_cell_angle_gamma    90

_symmetry_space_group_name_H-M    "P 1"
_symmetry_int_tables_number       1

loop_
  _symmetry_equiv_pos_as_xyz
  'x, y, z'

loop_
  _atom_site_label
  _atom_site_occupancy
  _atom_site_fract_x
  _atom_site_fract_y
  _atom_site_fract_z
  _atom_site_thermal_displace_type
  _atom_site_B_iso_or_equiv
  _atom_site_type_symbol
  Zn1      1.0000 0.29350  0.20650  0.20650  Biso   1.000  Zn
  O1       1.0000 0.28180  0.13390  0.21820  Biso   1.000  O 
  C1       1.0000 0.25000  0.11050  0.25000  Biso   1.000  C 
  C2       1.0000 0.25000  0.05380  0.25000  Biso   1.000  C 
  C3       1.0000 0.21690  0.02630  0.28310  Biso   1.000  C 
  H1       1.0000 0.19410  0.04520  0.30590  Biso   1.000  H 
  C4       1.0000 0.21690  0.97370  0.28310  Biso   1.000  C 
  H2       1.0000 0.19410  0.95480  0.30590  Biso   1.000  H 
  C5       1.0000 0.25000  0.94620  0.25000  Biso   1.000  C 
  C6       1.0000 0.25000  0.88950  0.25000  Biso   1.000  C 
  O2       1.0000 0.28180  0.86610  0.21820  Biso   1.000  O 
  Zn2      1.0000 0.29350  0.79350  0.20650  Biso   1.000  Zn
  O3       1.0000 0.28180  0.78180  0.13390  Biso   1.000  O 
  C7       1.0000 0.25000  0.75000  0.11050  Biso   1.000  C 
  C8       1.0000 0.25000  0.75000  0.05380  Biso   1.000  C 
  C9       1.0000 0.21690  0.71690  0.02630  Biso   1.000  C 
  H3       1.0000 0.19410  0.69410  0.04520  Biso   1.000  H 
  C10      1.0000 0.21690  0.71690  0.97370  Biso   1.000  C 
  H4       1.0000 0.19410  0.69410  0.95480  Biso   1.000  H 
  C11      1.0000 0.25000  0.75000  0.94620  Biso   1.000  C 
  C12      1.0000 0.25000  0.75000  0.88950  Biso   1.000  C 
  O4       1.0000 0.28180  0.78180  0.86610  Biso   1.000  O 
  Zn3      1.0000 0.29350  0.79350  0.79350  Biso   1.000  Zn
  O5       1.0000 0.25000  0.75000  0.75000  Biso   1.000  O 
  Zn4      1.0000 0.20650  0.70650  0.79350  Biso   1.000  Zn
  O6       1.0000 0.13390  0.71820  0.78180  Biso   1.000  O 
  C13      1.0000 0.11050  0.75000  0.75000  Biso   1.000  C 
  C14      1.0000 0.05380  0.75000  0.75000  Biso   1.000  C 
  C15      1.0000 0.02630  0.71690  0.78310  Biso   1.000  C 
  H5       1.0000 0.04520  0.69410  0.80590  Biso   1.000  H 
  C16      1.0000 0.97370  0.71690  0.78310  Biso   1.000  C 
  H6       1.0000 0.95480  0.69410  0.80590  Biso   1.000  H 
  C17      1.0000 0.94620  0.75000  0.75000  Biso   1.000  C 
  C18      1.0000 0.88950  0.75000  0.75000  Biso   1.000  C 
  O7       1.0000 0.86610  0.78180  0.71820  Biso   1.000  O 
  Zn5      1.0000 0.79350  0.79350  0.70650  Biso   1.000  Zn
  O8       1.0000 0.78180  0.78180  0.63390  Biso   1.000  O 
  C19      1.0000 0.75000  0.75000  0.61050  Biso   1.000  C 
  C20      1.0000 0.75000  0.75000  0.55380  Biso   1.000  C 
  C21      1.0000 0.78310  0.78310  0.52630  Biso   1.000  C 
  C22      1.0000 0.78310  0.78310  0.47370  Biso   1.000  C 
  C23      1.0000 0.75000  0.75000  0.44620  Biso   1.000  C 
  C24      1.0000 0.75000  0.75000  0.38950  Biso   1.000  C 
  O9       1.0000 0.71820  0.71820  0.36610  Biso   1.000  O 
  Zn6      1.0000 0.70650  0.70650  0.29350  Biso   1.000  Zn
  O10      1.0000 0.63390  0.71820  0.28180  Biso   1.000  O 
  C25      1.0000 0.61050  0.75000  0.25000  Biso   1.000  C 
  C26      1.0000 0.55380  0.75000  0.25000  Biso   1.000  C 
  C27      1.0000 0.52630  0.71690  0.28310  Biso   1.000  C 
  C28      1.0000 0.47370  0.71690  0.28310  Biso   1.000  C 
  H7       1.0000 0.45480  0.69410  0.30590  Biso   1.000  H 
  C29      1.0000 0.44620  0.75000  0.25000  Biso   1.000  C 
  C30      1.0000 0.38950  0.75000  0.25000  Biso   1.000  C 
  O11      1.0000 0.36610  0.78180  0.21820  Biso   1.000  O 
  O12      1.0000 0.36610  0.71820  0.28180  Biso   1.000  O 
  Zn7      1.0000 0.29350  0.70650  0.29350  Biso   1.000  Zn
  O13      1.0000 0.28180  0.63390  0.28180  Biso   1.000  O 
  C31      1.0000 0.25000  0.61050  0.25000  Biso   1.000  C 
  C32      1.0000 0.25000  0.55380  0.25000  Biso   1.000  C 
  C33      1.0000 0.28310  0.52630  0.28310  Biso   1.000  C 
  C34      1.0000 0.28310  0.47370  0.28310  Biso   1.000  C 
  C35      1.0000 0.25000  0.44620  0.25000  Biso   1.000  C 
  C36      1.0000 0.25000  0.38950  0.25000  Biso   1.000  C 
  O14      1.0000 0.21820  0.36610  0.21820  Biso   1.000  O 
  Zn8      1.0000 0.20650  0.29350  0.20650  Biso   1.000  Zn
  O15      1.0000 0.13390  0.28180  0.21820  Biso   1.000  O 
  C37      1.0000 0.11050  0.25000  0.25000  Biso   1.000  C 
  C38      1.0000 0.05380  0.25000  0.25000  Biso   1.000  C 
  C39      1.0000 0.02630  0.28310  0.21690  Biso   1.000  C 
  H8       1.0000 0.04520  0.30590  0.19410  Biso   1.000  H 
  C40      1.0000 0.97370  0.28310  0.21690  Biso   1.000  C 
  H9       1.0000 0.95480  0.30590  0.19410  Biso   1.000  H 
  C41      1.0000 0.94620  0.25000  0.25000  Biso   1.000  C 
  C42      1.0000 0.88950  0.25000  0.25000  Biso   1.000  C 
  O16      1.0000 0.86610  0.21820  0.28180  Biso   1.000  O 
  Zn9      1.0000 0.79350  0.20650  0.29350  Biso   1.000  Zn
  O17      1.0000 0.78180  0.13390  0.28180  Biso   1.000  O 
  C43      1.0000 0.75000  0.11050  0.25000  Biso   1.000  C 
  C44      1.0000 0.75000  0.05380  0.25000  Biso   1.000  C 
  C45      1.0000 0.71690  0.02630  0.21690  Biso   1.000  C 
  H10      1.0000 0.69410  0.04520  0.19410  Biso   1.000  H 
  C46      1.0000 0.71690  0.97370  0.21690  Biso   1.000  C 
  H11      1.0000 0.69410  0.95480  0.19410  Biso   1.000  H 
  C47      1.0000 0.75000  0.94620  0.25000  Biso   1.000  C 
  C48      1.0000 0.75000  0.88950  0.25000  Biso   1.000  C 
  O18      1.0000 0.78180  0.86610  0.28180  Biso   1.000  O 
  Zn10     1.0000 0.79350  0.79350  0.29350  Biso   1.000  Zn
  O19      1.0000 0.86610  0.78180  0.28180  Biso   1.000  O 
  C49      1.0000 0.88950  0.75000  0.25000  Biso   1.000  C 
  C50      1.0000 0.94620  0.75000  0.25000  Biso   1.000  C 
  C51      1.0000 0.97370  0.71690  0.21690  Biso   1.000  C 
  H12      1.0000 0.95480  0.69410  0.19410  Biso   1.000  H 
  C52      1.0000 0.02630  0.71690  0.21690  Biso   1.000  C 
  H13      1.0000 0.04520  0.69410  0.19410  Biso   1.000  H 
  C53      1.0000 0.05380  0.75000  0.25000  Biso   1.000  C 
  C54      1.0000 0.11050  0.75000  0.25000  Biso   1.000  C 
  O20      1.0000 0.13390  0.78180  0.28180  Biso   1.000  O 
  Zn11     1.0000 0.20650  0.79350  0.29350  Biso   1.000  Zn
  O21      1.0000 0.21820  0.86610  0.28180  Biso   1.000  O 
  O22      1.0000 0.21820  0.78180  0.36610  Biso   1.000  O 
  C55      1.0000 0.25000  0.75000  0.38950  Biso   1.000  C 
  C56      1.0000 0.25000  0.75000  0.44620  Biso   1.000  C 
  C57      1.0000 0.21690  0.78310  0.47370  Biso   1.000  C 
  H14      1.0000 0.19410  0.80590  0.45480  Biso   1.000  H 
  C58      1.0000 0.21690  0.78310  0.52630  Biso   1.000  C 
  H15      1.0000 0.19410  0.80590  0.54520  Biso   1.000  H 
  C59      1.0000 0.25000  0.75000  0.55380  Biso   1.000  C 
  C60      1.0000 0.25000  0.75000  0.61050  Biso   1.000  C 
  O23      1.0000 0.28180  0.71820  0.63390  Biso   1.000  O 
  Zn12     1.0000 0.29350  0.70650  0.70650  Biso   1.000  Zn
  O24      1.0000 0.28180  0.63390  0.71820  Biso   1.000  O 
  C61      1.0000 0.25000  0.61050  0.75000  Biso   1.000  C 
  C62      1.0000 0.25000  0.55380  0.75000  Biso   1.000  C 
  C63      1.0000 0.21690  0.52630  0.78310  Biso   1.000  C 
  C64      1.0000 0.21690  0.47370  0.78310  Biso   1.000  C 
  H16      1.0000 0.19410  0.45480  0.80590  Biso   1.000  H 
  C65      1.0000 0.25000  0.44620  0.75000  Biso   1.000  C 
  C66      1.0000 0.25000  0.38950  0.75000  Biso   1.000  C 
  O25      1.0000 0.28180  0.36610  0.71820  Biso   1.000  O 
  Zn13     1.0000 0.29350  0.29350  0.70650  Biso   1.000  Zn
  O26      1.0000 0.28180  0.28180  0.63390  Biso   1.000  O 
  C67      1.0000 0.25000  0.25000  0.61050  Biso   1.000  C 
  C68      1.0000 0.25000  0.25000  0.55380  Biso   1.000  C 
  C69      1.0000 0.21690  0.21690  0.52630  Biso   1.000  C 
  C70      1.0000 0.21690  0.21690  0.47370  Biso   1.000  C 
  H17      1.0000 0.19410  0.19410  0.45480  Biso   1.000  H 
  C71      1.0000 0.25000  0.25000  0.44620  Biso   1.000  C 
  C72      1.0000 0.25000  0.25000  0.38950  Biso   1.000  C 
  O27      1.0000 0.28180  0.28180  0.36610  Biso   1.000  O 
  Zn14     1.0000 0.29350  0.29350  0.29350  Biso   1.000  Zn
  O28      1.0000 0.25000  0.25000  0.25000  Biso   1.000  O 
  Zn15     1.0000 0.20650  0.20650  0.29350  Biso   1.000  Zn
  O29      1.0000 0.21820  0.13390  0.28180  Biso   1.000  O 
  O30      1.0000 0.13390  0.21820  0.28180  Biso   1.000  O 
  O31      1.0000 0.21820  0.21820  0.36610  Biso   1.000  O 
  O32      1.0000 0.36610  0.28180  0.28180  Biso   1.000  O 
  C73      1.0000 0.38950  0.25000  0.25000  Biso   1.000  C 
  C74      1.0000 0.44620  0.25000  0.25000  Biso   1.000  C 
  C75      1.0000 0.47370  0.28310  0.28310  Biso   1.000  C 
  H18      1.0000 0.45480  0.30590  0.30590  Biso   1.000  H 
  C76      1.0000 0.52630  0.28310  0.28310  Biso   1.000  C 
  C77      1.0000 0.55380  0.25000  0.25000  Biso   1.000  C 
  C78      1.0000 0.61050  0.25000  0.25000  Biso   1.000  C 
  O33      1.0000 0.63390  0.21820  0.21820  Biso   1.000  O 
  Zn16     1.0000 0.70650  0.20650  0.20650  Biso   1.000  Zn
  O34      1.0000 0.71820  0.13390  0.21820  Biso   1.000  O 
  O35      1.0000 0.71820  0.21820  0.13390  Biso   1.000  O 
  C79      1.0000 0.75000  0.25000  0.11050  Biso   1.000  C 
  C80      1.0000 0.75000  0.25000  0.05380  Biso   1.000  C 
  C81      1.0000 0.78310  0.28310  0.02630  Biso   1.000  C 
  H19      1.0000 0.80590  0.30590  0.04520  Biso   1.000  H 
  C82      1.0000 0.78310  0.28310  0.97370  Biso   1.000  C 
  C83      1.0000 0.75000  0.25000  0.94620  Biso   1.000  C 
  C84      1.0000 0.75000  0.25000  0.88950  Biso   1.000  C 
  O36      1.0000 0.71820  0.21820  0.86610  Biso   1.000  O 
  Zn17     1.0000 0.70650  0.20650  0.79350  Biso   1.000  Zn
  O37      1.0000 0.63390  0.21820  0.78180  Biso   1.000  O 
  C85      1.0000 0.61050  0.25000  0.75000  Biso   1.000  C 
  C86      1.0000 0.55380  0.25000  0.75000  Biso   1.000  C 
  C87      1.0000 0.52630  0.28310  0.71690  Biso   1.000  C 
  C88      1.0000 0.47370  0.28310  0.71690  Biso   1.000  C 
  H20      1.0000 0.45480  0.30590  0.69410  Biso   1.000  H 
  C89      1.0000 0.44620  0.25000  0.75000  Biso   1.000  C 
  C90      1.0000 0.38950  0.25000  0.75000  Biso   1.000  C 
  O38      1.0000 0.36610  0.21820  0.78180  Biso   1.000  O 
  Zn18     1.0000 0.29350  0.20650  0.79350  Biso   1.000  Zn
  O39      1.0000 0.28180  0.13390  0.78180  Biso   1.000  O 
  C91      1.0000 0.25000  0.11050  0.75000  Biso   1.000  C 
  C92      1.0000 0.25000  0.05380  0.75000  Biso   1.000  C 
  C93      1.0000 0.28310  0.02630  0.78310  Biso   1.000  C 
  H21      1.0000 0.30590  0.04520  0.80590  Biso   1.000  H 
  C94      1.0000 0.28310  0.97370  0.78310  Biso   1.000  C 
  C95      1.0000 0.25000  0.94620  0.75000  Biso   1.000  C 
  C96      1.0000 0.25000  0.88950  0.75000  Biso   1.000  C 
  O40      1.0000 0.21820  0.86610  0.71820  Biso   1.000  O 
  Zn19     1.0000 0.20650  0.79350  0.70650  Biso   1.000  Zn
  O41      1.0000 0.21820  0.78180  0.63390  Biso   1.000  O 
  O42      1.0000 0.13390  0.78180  0.71820  Biso   1.000  O 
  O43      1.0000 0.28180  0.86610  0.78180  Biso   1.000  O 
  C97      1.0000 0.21690  0.97370  0.71690  Biso   1.000  C 
  H22      1.0000 0.19410  0.95480  0.69410  Biso   1.000  H 
  C98      1.0000 0.21690  0.02630  0.71690  Biso   1.000  C 
  H23      1.0000 0.19410  0.04520  0.69410  Biso   1.000  H 
  H24      1.0000 0.30590  0.95480  0.80590  Biso   1.000  H 
  O44      1.0000 0.21820  0.13390  0.71820  Biso   1.000  O 
  Zn20     1.0000 0.20650  0.20650  0.70650  Biso   1.000  Zn
  O45      1.0000 0.13390  0.21820  0.71820  Biso   1.000  O 
  C99      1.0000 0.11050  0.25000  0.75000  Biso   1.000  C 
  C100     1.0000 0.05380  0.25000  0.75000  Biso   1.000  C 
  C101     1.0000 0.02630  0.21690  0.71690  Biso   1.000  C 
  H25      1.0000 0.04520  0.19410  0.69410  Biso   1.000  H 
  C102     1.0000 0.97370  0.21690  0.71690  Biso   1.000  C 
  H26      1.0000 0.95480  0.19410  0.69410  Biso   1.000  H 
  C103     1.0000 0.94620  0.25000  0.75000  Biso   1.000  C 
  C104     1.0000 0.88950  0.25000  0.75000  Biso   1.000  C 
  O46      1.0000 0.86610  0.28180  0.78180  Biso   1.000  O 
  Zn21     1.0000 0.79350  0.29350  0.79350  Biso   1.000  Zn
  O47      1.0000 0.75000  0.25000  0.75000  Biso   1.000  O 
  Zn22     1.0000 0.79350  0.20650  0.70650  Biso   1.000  Zn
  O48      1.0000 0.86610  0.21820  0.71820  Biso   1.000  O 
  O49      1.0000 0.78180  0.21820  0.63390  Biso   1.000  O 
  C105     1.0000 0.75000  0.25000  0.61050  Biso   1.000  C 
  C106     1.0000 0.75000  0.25000  0.55380  Biso   1.000  C 
  C107     1.0000 0.71690  0.28310  0.52630  Biso   1.000  C 
  C108     1.0000 0.71690  0.28310  0.47370  Biso   1.000  C 
  H27      1.0000 0.69410  0.30590  0.45480  Biso   1.000  H 
  C109     1.0000 0.75000  0.25000  0.44620  Biso   1.000  C 
  C110     1.0000 0.75000  0.25000  0.38950  Biso   1.000  C 
  O50      1.0000 0.78180  0.21820  0.36610  Biso   1.000  O 
  O51      1.0000 0.71820  0.28180  0.36610  Biso   1.000  O 
  Zn23     1.0000 0.70650  0.29350  0.29350  Biso   1.000  Zn
  O52      1.0000 0.63390  0.28180  0.28180  Biso   1.000  O 
  O53      1.0000 0.71820  0.36610  0.28180  Biso   1.000  O 
  C111     1.0000 0.75000  0.38950  0.25000  Biso   1.000  C 
  C112     1.0000 0.75000  0.44620  0.25000  Biso   1.000  C 
  C113     1.0000 0.71690  0.47370  0.28310  Biso   1.000  C 
  H28      1.0000 0.69410  0.45480  0.30590  Biso   1.000  H 
  C114     1.0000 0.71690  0.52630  0.28310  Biso   1.000  C 
  H29      1.0000 0.69410  0.54520  0.30590  Biso   1.000  H 
  C115     1.0000 0.75000  0.55380  0.25000  Biso   1.000  C 
  C116     1.0000 0.75000  0.61050  0.25000  Biso   1.000  C 
  O54      1.0000 0.78180  0.63390  0.21820  Biso   1.000  O 
  Zn24     1.0000 0.79350  0.70650  0.20650  Biso   1.000  Zn
  O55      1.0000 0.86610  0.71820  0.21820  Biso   1.000  O 
  O56      1.0000 0.78180  0.71820  0.13390  Biso   1.000  O 
  C117     1.0000 0.75000  0.75000  0.11050  Biso   1.000  C 
  C118     1.0000 0.75000  0.75000  0.05380  Biso   1.000  C 
  C119     1.0000 0.71690  0.78310  0.02630  Biso   1.000  C 
  H30      1.0000 0.69410  0.80590  0.04520  Biso   1.000  H 
  C120     1.0000 0.71690  0.78310  0.97370  Biso   1.000  C 
  H31      1.0000 0.69410  0.80590  0.95480  Biso   1.000  H 
  C121     1.0000 0.75000  0.75000  0.94620  Biso   1.000  C 
  C122     1.0000 0.75000  0.75000  0.88950  Biso   1.000  C 
  O57      1.0000 0.78180  0.71820  0.86610  Biso   1.000  O 
  Zn25     1.0000 0.79350  0.70650  0.79350  Biso   1.000  Zn
  O58      1.0000 0.86610  0.71820  0.78180  Biso   1.000  O 
  O59      1.0000 0.78180  0.63390  0.78180  Biso   1.000  O 
  C123     1.0000 0.75000  0.61050  0.75000  Biso   1.000  C 
  C124     1.0000 0.75000  0.55380  0.75000  Biso   1.000  C 
  C125     1.0000 0.71690  0.52630  0.71690  Biso   1.000  C 
  C126     1.0000 0.71690  0.47370  0.71690  Biso   1.000  C 
  H32      1.0000 0.69410  0.45480  0.69410  Biso   1.000  H 
  C127     1.0000 0.75000  0.44620  0.75000  Biso   1.000  C 
  C128     1.0000 0.75000  0.38950  0.75000  Biso   1.000  C 
  O60      1.0000 0.78180  0.36610  0.78180  Biso   1.000  O 
  O61      1.0000 0.71820  0.36610  0.71820  Biso   1.000  O 
  Zn26     1.0000 0.70650  0.29350  0.70650  Biso   1.000  Zn
  O62      1.0000 0.71820  0.28180  0.63390  Biso   1.000  O 
  O63      1.0000 0.63390  0.28180  0.71820  Biso   1.000  O 
  C129     1.0000 0.78310  0.47370  0.78310  Biso   1.000  C 
  H33      1.0000 0.80590  0.45480  0.80590  Biso   1.000  H 
  C130     1.0000 0.78310  0.52630  0.78310  Biso   1.000  C 
  H34      1.0000 0.80590  0.54520  0.80590  Biso   1.000  H 
  H35      1.0000 0.69410  0.54520  0.69410  Biso   1.000  H 
  O64      1.0000 0.71820  0.63390  0.71820  Biso   1.000  O 
  Zn27     1.0000 0.70650  0.70650  0.70650  Biso   1.000  Zn
  O65      1.0000 0.71820  0.71820  0.63390  Biso   1.000  O 
  O66      1.0000 0.63390  0.71820  0.71820  Biso   1.000  O 
  C131     1.0000 0.61050  0.75000  0.75000  Biso   1.000  C 
  C132     1.0000 0.55380  0.75000  0.75000  Biso   1.000  C 
  C133     1.0000 0.52630  0.78310  0.78310  Biso   1.000  C 
  C134     1.0000 0.47370  0.78310  0.78310  Biso   1.000  C 
  H36      1.0000 0.45480  0.80590  0.80590  Biso   1.000  H 
  C135     1.0000 0.44620  0.75000  0.75000  Biso   1.000  C 
  C136     1.0000 0.38950  0.75000  0.75000  Biso   1.000  C 
  O67      1.0000 0.36610  0.71820  0.71820  Biso   1.000  O 
  O68      1.0000 0.36610  0.78180  0.78180  Biso   1.000  O 
  C137     1.0000 0.47370  0.71690  0.71690  Biso   1.000  C 
  H37      1.0000 0.45480  0.69410  0.69410  Biso   1.000  H 
  C138     1.0000 0.52630  0.71690  0.71690  Biso   1.000  C 
  H38      1.0000 0.54520  0.69410  0.69410  Biso   1.000  H 
  H39      1.0000 0.54520  0.80590  0.80590  Biso   1.000  H 
  O69      1.0000 0.63390  0.78180  0.78180  Biso   1.000  O 
  Zn28     1.0000 0.70650  0.79350  0.79350  Biso   1.000  Zn
  O70      1.0000 0.71820  0.78180  0.86610  Biso   1.000  O 
  O71      1.0000 0.71820  0.86610  0.78180  Biso   1.000  O 
  C139     1.0000 0.75000  0.88950  0.75000  Biso   1.000  C 
  C140     1.0000 0.75000  0.94620  0.75000  Biso   1.000  C 
  C141     1.0000 0.71690  0.97370  0.78310  Biso   1.000  C 
  H40      1.0000 0.69410  0.95480  0.80590  Biso   1.000  H 
  C142     1.0000 0.71690  0.02630  0.78310  Biso   1.000  C 
  H41      1.0000 0.69410  0.04520  0.80590  Biso   1.000  H 
  C143     1.0000 0.75000  0.05380  0.75000  Biso   1.000  C 
  C144     1.0000 0.75000  0.11050  0.75000  Biso   1.000  C 
  O72      1.0000 0.78180  0.13390  0.71820  Biso   1.000  O 
  O73      1.0000 0.71820  0.13390  0.78180  Biso   1.000  O 
  C145     1.0000 0.78310  0.02630  0.71690  Biso   1.000  C 
  H42      1.0000 0.80590  0.04520  0.69410  Biso   1.000  H 
  C146     1.0000 0.78310  0.97370  0.71690  Biso   1.000  C 
  H43      1.0000 0.80590  0.95480  0.69410  Biso   1.000  H 
  O74      1.0000 0.78180  0.86610  0.71820  Biso   1.000  O 
  O75      1.0000 0.75000  0.75000  0.75000  Biso   1.000  O 
  C147     1.0000 0.78310  0.71690  0.97370  Biso   1.000  C 
  H44      1.0000 0.80590  0.69410  0.95480  Biso   1.000  H 
  C148     1.0000 0.78310  0.71690  0.02630  Biso   1.000  C 
  H45      1.0000 0.80590  0.69410  0.04520  Biso   1.000  H 
  O76      1.0000 0.71820  0.78180  0.13390  Biso   1.000  O 
  Zn29     1.0000 0.70650  0.79350  0.20650  Biso   1.000  Zn
  O77      1.0000 0.63390  0.78180  0.21820  Biso   1.000  O 
  O78      1.0000 0.71820  0.86610  0.21820  Biso   1.000  O 
  O79      1.0000 0.75000  0.75000  0.25000  Biso   1.000  O 
  O80      1.0000 0.71820  0.63390  0.28180  Biso   1.000  O 
  C149     1.0000 0.78310  0.52630  0.21690  Biso   1.000  C 
  C150     1.0000 0.78310  0.47370  0.21690  Biso   1.000  C 
  H46      1.0000 0.80590  0.45480  0.19410  Biso   1.000  H 
  H47      1.0000 0.80590  0.54520  0.19410  Biso   1.000  H 
  O81      1.0000 0.78180  0.36610  0.21820  Biso   1.000  O 
  Zn30     1.0000 0.79350  0.29350  0.20650  Biso   1.000  Zn
  O82      1.0000 0.78180  0.28180  0.13390  Biso   1.000  O 
  O83      1.0000 0.86610  0.28180  0.21820  Biso   1.000  O 
  O84      1.0000 0.75000  0.25000  0.25000  Biso   1.000  O 
  C151     1.0000 0.78310  0.21690  0.47370  Biso   1.000  C 
  H48      1.0000 0.80590  0.19410  0.45480  Biso   1.000  H 
  C152     1.0000 0.78310  0.21690  0.52630  Biso   1.000  C 
  H49      1.0000 0.80590  0.19410  0.54520  Biso   1.000  H 
  H50      1.0000 0.69410  0.30590  0.54520  Biso   1.000  H 
  O85      1.0000 0.78180  0.28180  0.86610  Biso   1.000  O 
  C153     1.0000 0.97370  0.28310  0.78310  Biso   1.000  C 
  H51      1.0000 0.95480  0.30590  0.80590  Biso   1.000  H 
  C154     1.0000 0.02630  0.28310  0.78310  Biso   1.000  C 
  H52      1.0000 0.04520  0.30590  0.80590  Biso   1.000  H 
  O86      1.0000 0.13390  0.28180  0.78180  Biso   1.000  O 
  Zn31     1.0000 0.20650  0.29350  0.79350  Biso   1.000  Zn
  O87      1.0000 0.21820  0.28180  0.86610  Biso   1.000  O 
  C155     1.0000 0.25000  0.25000  0.88950  Biso   1.000  C 
  C156     1.0000 0.25000  0.25000  0.94620  Biso   1.000  C 
  C157     1.0000 0.21690  0.28310  0.97370  Biso   1.000  C 
  H53      1.0000 0.19410  0.30590  0.95480  Biso   1.000  H 
  C158     1.0000 0.21690  0.28310  0.02630  Biso   1.000  C 
  H54      1.0000 0.19410  0.30590  0.04520  Biso   1.000  H 
  C159     1.0000 0.25000  0.25000  0.05380  Biso   1.000  C 
  C160     1.0000 0.25000  0.25000  0.11050  Biso   1.000  C 
  O88      1.0000 0.28180  0.21820  0.13390  Biso   1.000  O 
  O89      1.0000 0.21820  0.28180  0.13390  Biso   1.000  O 
  C161     1.0000 0.28310  0.21690  0.02630  Biso   1.000  C 
  H55      1.0000 0.30590  0.19410  0.04520  Biso   1.000  H 
  C162     1.0000 0.28310  0.21690  0.97370  Biso   1.000  C 
  H56      1.0000 0.30590  0.19410  0.95480  Biso   1.000  H 
  O90      1.0000 0.28180  0.21820  0.86610  Biso   1.000  O 
  O91      1.0000 0.21820  0.36610  0.78180  Biso   1.000  O 
  O92      1.0000 0.25000  0.25000  0.75000  Biso   1.000  O 
  O93      1.0000 0.21820  0.21820  0.63390  Biso   1.000  O 
  O94      1.0000 0.36610  0.28180  0.71820  Biso   1.000  O 
  C163     1.0000 0.47370  0.21690  0.78310  Biso   1.000  C 
  H57      1.0000 0.45480  0.19410  0.80590  Biso   1.000  H 
  C164     1.0000 0.52630  0.21690  0.78310  Biso   1.000  C 
  H58      1.0000 0.54520  0.19410  0.80590  Biso   1.000  H 
  H59      1.0000 0.54520  0.30590  0.69410  Biso   1.000  H 
  C165     1.0000 0.71690  0.21690  0.97370  Biso   1.000  C 
  H60      1.0000 0.69410  0.19410  0.95480  Biso   1.000  H 
  C166     1.0000 0.71690  0.21690  0.02630  Biso   1.000  C 
  H61      1.0000 0.69410  0.19410  0.04520  Biso   1.000  H 
  H62      1.0000 0.80590  0.30590  0.95480  Biso   1.000  H 
  C167     1.0000 0.52630  0.21690  0.21690  Biso   1.000  C 
  C168     1.0000 0.47370  0.21690  0.21690  Biso   1.000  C 
  H63      1.0000 0.45480  0.19410  0.19410  Biso   1.000  H 
  H64      1.0000 0.54520  0.19410  0.19410  Biso   1.000  H 
  H65      1.0000 0.54520  0.30590  0.30590  Biso   1.000  H 
  O95      1.0000 0.36610  0.21820  0.21820  Biso   1.000  O 
  O96      1.0000 0.28180  0.36610  0.28180  Biso   1.000  O 
  C169     1.0000 0.28310  0.28310  0.47370  Biso   1.000  C 
  H66      1.0000 0.30590  0.30590  0.45480  Biso   1.000  H 
  C170     1.0000 0.28310  0.28310  0.52630  Biso   1.000  C 
  H67      1.0000 0.30590  0.30590  0.54520  Biso   1.000  H 
  H68      1.0000 0.19410  0.19410  0.54520  Biso   1.000  H 
  C171     1.0000 0.28310  0.47370  0.71690  Biso   1.000  C 
  H69      1.0000 0.30590  0.45480  0.69410  Biso   1.000  H 
  C172     1.0000 0.28310  0.52630  0.71690  Biso   1.000  C 
  H70      1.0000 0.30590  0.54520  0.69410  Biso   1.000  H 
  H71      1.0000 0.19410  0.54520  0.80590  Biso   1.000  H 
  O97      1.0000 0.21820  0.63390  0.78180  Biso   1.000  O 
  C173     1.0000 0.28310  0.71690  0.52630  Biso   1.000  C 
  C174     1.0000 0.28310  0.71690  0.47370  Biso   1.000  C 
  H72      1.0000 0.30590  0.69410  0.45480  Biso   1.000  H 
  H73      1.0000 0.30590  0.69410  0.54520  Biso   1.000  H 
  O98      1.0000 0.28180  0.71820  0.36610  Biso   1.000  O 
  O99      1.0000 0.25000  0.75000  0.25000  Biso   1.000  O 
  Zn32     1.0000 0.20650  0.70650  0.20650  Biso   1.000  Zn
  O100     1.0000 0.13390  0.71820  0.21820  Biso   1.000  O 
  O101     1.0000 0.21820  0.63390  0.21820  Biso   1.000  O 
  O102     1.0000 0.21820  0.71820  0.13390  Biso   1.000  O 
  C175     1.0000 0.02630  0.78310  0.28310  Biso   1.000  C 
  H74      1.0000 0.04520  0.80590  0.30590  Biso   1.000  H 
  C176     1.0000 0.97370  0.78310  0.28310  Biso   1.000  C 
  H75      1.0000 0.95480  0.80590  0.30590  Biso   1.000  H 
  O103     1.0000 0.78180  0.78180  0.36610  Biso   1.000  O 
  C177     1.0000 0.78310  0.97370  0.28310  Biso   1.000  C 
  H76      1.0000 0.80590  0.95480  0.30590  Biso   1.000  H 
  C178     1.0000 0.78310  0.02630  0.28310  Biso   1.000  C 
  H77      1.0000 0.80590  0.04520  0.30590  Biso   1.000  H 
  C179     1.0000 0.97370  0.21690  0.28310  Biso   1.000  C 
  H78      1.0000 0.95480  0.19410  0.30590  Biso   1.000  H 
  C180     1.0000 0.02630  0.21690  0.28310  Biso   1.000  C 
  H79      1.0000 0.04520  0.19410  0.30590  Biso   1.000  H 
  C181     1.0000 0.21690  0.47370  0.21690  Biso   1.000  C 
  H80      1.0000 0.19410  0.45480  0.19410  Biso   1.000  H 
  C182     1.0000 0.21690  0.52630  0.21690  Biso   1.000  C 
  H81      1.0000 0.19410  0.54520  0.19410  Biso   1.000  H 
  H82      1.0000 0.30590  0.45480  0.30590  Biso   1.000  H 
  H83      1.0000 0.30590  0.54520  0.30590  Biso   1.000  H 
  C183     1.0000 0.47370  0.78310  0.21690  Biso   1.000  C 
  H84      1.0000 0.45480  0.80590  0.19410  Biso   1.000  H 
  C184     1.0000 0.52630  0.78310  0.21690  Biso   1.000  C 
  H85      1.0000 0.54520  0.80590  0.19410  Biso   1.000  H 
  H86      1.0000 0.54520  0.69410  0.30590  Biso   1.000  H 
  C185     1.0000 0.71690  0.71690  0.47370  Biso   1.000  C 
  H87      1.0000 0.69410  0.69410  0.45480  Biso   1.000  H 
  C186     1.0000 0.71690  0.71690  0.52630  Biso   1.000  C 
  H88      1.0000 0.69410  0.69410  0.54520  Biso   1.000  H 
  H89      1.0000 0.80590  0.80590  0.45480  Biso   1.000  H 
  H90      1.0000 0.80590  0.80590  0.54520  Biso   1.000  H 
  C187     1.0000 0.97370  0.78310  0.71690  Biso   1.000  C 
  H91      1.0000 0.95480  0.80590  0.69410  Biso   1.000  H 
  C188     1.0000 0.02630  0.78310  0.71690  Biso   1.000  C 
  H92      1.0000 0.04520  0.80590  0.69410  Biso   1.000  H 
  O104     1.0000 0.21820  0.71820  0.86610  Biso   1.000  O 
  C189     1.0000 0.28310  0.78310  0.97370  Biso   1.000  C 
  H93      1.0000 0.30590  0.80590  0.95480  Biso   1.000  H 
  C190     1.0000 0.28310  0.78310  0.02630  Biso   1.000  C 
  H94      1.0000 0.30590  0.80590  0.04520  Biso   1.000  H 
  C191     1.0000 0.28310  0.97370  0.21690  Biso   1.000  C 
  H95      1.0000 0.30590  0.95480  0.19410  Biso   1.000  H 
  C192     1.0000 0.28310  0.02630  0.21690  Biso   1.000  C 
  H96      1.0000 0.30590  0.04520  0.19410  Biso   1.000  H 
