data_image0
_cell_length_a       10.185
_cell_length_b       11.081
_cell_length_c       12.378
_cell_angle_alpha    107.55
_cell_angle_beta     82.88
_cell_angle_gamma    111.09

_symmetry_space_group_name_H-M    "P 1"
_symmetry_int_tables_number       1

loop_
  _symmetry_equiv_pos_as_xyz
  'x, y, z'

loop_
  _atom_site_label
  _atom_site_occupancy
  _atom_site_fract_x
  _atom_site_fract_y
  _atom_site_fract_z
  _atom_site_thermal_displace_type
  _atom_site_B_iso_or_equiv
  _atom_site_type_symbol
  Mn1      1.0000 0.50000  0.50000  0.50000  Biso   1.000  Mn
  N1       1.0000 0.38410  0.30730  0.42650  Biso   1.000  N 
  C1       1.0000 0.34320  0.20040  0.47250  Biso   1.000  C 
  C2       1.0000 0.25980  0.08090  0.39290  Biso   1.000  C 
  C3       1.0000 0.24740  0.11760  0.30130  Biso   1.000  C 
  H1       1.0000 0.19680  0.05970  0.23480  Biso   1.000  H 
  C4       1.0000 0.32330  0.25840  0.32130  Biso   1.000  C 
  C5       1.0000 0.33240  0.33150  0.24660  Biso   1.000  C 
  C6       1.0000 0.24720  0.26400  0.14130  Biso   1.000  C 
  C7       1.0000 0.28620  0.18280  0.04610  Biso   1.000  C 
  H2       1.0000 0.37210  0.16740  0.04630  Biso   1.000  H 
  C8       1.0000 0.20640  0.12190  0.94910  Biso   1.000  C 
  C9       1.0000 0.08290  0.14260  0.94860  Biso   1.000  C 
  H3       1.0000 0.02680  0.10060  0.88280  Biso   1.000  H 
  C10      1.0000 0.03820  0.22350  0.04210  Biso   1.000  C 
  C11      1.0000 0.12170  0.28370  0.13750  Biso   1.000  C 
  F1       1.0000 0.07920  0.35890  0.22600  Biso   1.000  F 
  H4       1.0000 0.95190  0.23800  0.04140  Biso   1.000  H 
  H5       1.0000 0.23740  0.06650  0.88410  Biso   1.000  H 
  C12      1.0000 0.41100  0.46800  0.26470  Biso   1.000  C 
  C13      1.0000 0.42810  0.54170  0.18480  Biso   1.000  C 
  C14      1.0000 0.50990  0.66930  0.23150  Biso   1.000  C 
  H6       1.0000 0.53880  0.74120  0.19740  Biso   1.000  H 
  C15      1.0000 0.54530  0.67670  0.34230  Biso   1.000  C 
  C16      1.0000 0.62550  0.79370  0.41930  Biso   1.000  C 
  C17      1.0000 0.68210  0.92030  0.38290  Biso   1.000  C 
  C18      1.0000 0.59420  0.98290  0.36520  Biso   1.000  C 
  H7       1.0000 0.49560  0.94390  0.37610  Biso   1.000  H 
  C19      1.0000 0.64540  0.10010  0.33230  Biso   1.000  C 
  C20      1.0000 0.78840  0.15700  0.31660  Biso   1.000  C 
  H8       1.0000 0.82440  0.23740  0.29360  Biso   1.000  H 
  C21      1.0000 0.87940  0.09860  0.33380  Biso   1.000  C 
  H9       1.0000 0.97790  0.13840  0.32340  Biso   1.000  H 
  C22      1.0000 0.82520  0.98080  0.36650  Biso   1.000  C 
  F2       1.0000 0.90930  0.92090  0.37750  Biso   1.000  F 
  H10      1.0000 0.58280  0.14100  0.32070  Biso   1.000  H 
  C23      1.0000 0.65680  0.79960  0.52750  Biso   1.000  C 
  C24      1.0000 0.74020  0.91910  0.60710  Biso   1.000  C 
  C25      1.0000 0.75260  0.88240  0.69870  Biso   1.000  C 
  H11      1.0000 0.80320  0.94030  0.76520  Biso   1.000  H 
  C26      1.0000 0.67670  0.74160  0.67870  Biso   1.000  C 
  C27      1.0000 0.66760  0.66850  0.75340  Biso   1.000  C 
  C28      1.0000 0.58900  0.53200  0.73530  Biso   1.000  C 
  C29      1.0000 0.57190  0.45830  0.81520  Biso   1.000  C 
  C30      1.0000 0.49010  0.33070  0.76850  Biso   1.000  C 
  H12      1.0000 0.46120  0.25880  0.80260  Biso   1.000  H 
  C31      1.0000 0.45470  0.32330  0.65770  Biso   1.000  C 
  C32      1.0000 0.37450  0.20630  0.58070  Biso   1.000  C 
  C33      1.0000 0.31790  0.07970  0.61710  Biso   1.000  C 
  C34      1.0000 0.17480  0.01920  0.63350  Biso   1.000  C 
  F3       1.0000 0.09070  0.07910  0.62250  Biso   1.000  F 
  C35      1.0000 0.12060  0.90140  0.66620  Biso   1.000  C 
  H13      1.0000 0.02210  0.86160  0.67660  Biso   1.000  H 
  C36      1.0000 0.21160  0.84300  0.68340  Biso   1.000  C 
  H14      1.0000 0.17560  0.76260  0.70640  Biso   1.000  H 
  C37      1.0000 0.35460  0.89990  0.66770  Biso   1.000  C 
  H15      1.0000 0.41720  0.85900  0.67930  Biso   1.000  H 
  C38      1.0000 0.40580  0.01710  0.63480  Biso   1.000  C 
  H16      1.0000 0.50440  0.05610  0.62390  Biso   1.000  H 
  N2       1.0000 0.51410  0.44840  0.63860  Biso   1.000  N 
  H17      1.0000 0.61130  0.49310  0.88860  Biso   1.000  H 
  C39      1.0000 0.75280  0.73600  0.85870  Biso   1.000  C 
  C40      1.0000 0.71380  0.81720  0.95390  Biso   1.000  C 
  H18      1.0000 0.62790  0.83260  0.95370  Biso   1.000  H 
  C41      1.0000 0.79360  0.87810  0.05090  Biso   1.000  C 
  C42      1.0000 0.91710  0.85740  0.05140  Biso   1.000  C 
  H19      1.0000 0.97320  0.89940  0.11720  Biso   1.000  H 
  C43      1.0000 0.96180  0.77650  0.95790  Biso   1.000  C 
  C44      1.0000 0.87830  0.71630  0.86250  Biso   1.000  C 
  F4       1.0000 0.92080  0.64110  0.77400  Biso   1.000  F 
  H20      1.0000 0.04810  0.76200  0.95860  Biso   1.000  H 
  H21      1.0000 0.76260  0.93350  0.11590  Biso   1.000  H 
  N3       1.0000 0.61590  0.69270  0.57350  Biso   1.000  N 
  H22      1.0000 0.77910  0.00690  0.59720  Biso   1.000  H 
  N4       1.0000 0.48590  0.55160  0.36140  Biso   1.000  N 
  H23      1.0000 0.38870  0.50690  0.11140  Biso   1.000  H 
  H24      1.0000 0.22090  0.99310  0.40280  Biso   1.000  H 
  N5       1.0000 0.28750  0.53080  0.55990  Biso   1.000  N 
  C45      1.0000 0.16960  0.50320  0.54680  Biso   1.000  C 
  C46      1.0000 0.02450  0.46860  0.53070  Biso   1.000  C 
  C47      1.0000 0.97550  0.53140  0.46930  Biso   1.000  C 
  C48      1.0000 0.07040  0.63060  0.41870  Biso   1.000  C 
  N6       1.0000 0.14580  0.71020  0.37840  Biso   1.000  N 
  C49      1.0000 0.83040  0.49680  0.45320  Biso   1.000  C 
  N7       1.0000 0.71250  0.46920  0.44010  Biso   1.000  N 
  C50      1.0000 0.92960  0.36940  0.58130  Biso   1.000  C 
  N8       1.0000 0.85420  0.28980  0.62160  Biso   1.000  N 
