data_image0
_cell_length_a       20.889
_cell_length_b       21.431
_cell_length_c       13.025
_cell_angle_alpha    90
_cell_angle_beta     90
_cell_angle_gamma    90

_symmetry_space_group_name_H-M    "P 1"
_symmetry_int_tables_number       1

loop_
  _symmetry_equiv_pos_as_xyz
  'x, y, z'

loop_
  _atom_site_label
  _atom_site_occupancy
  _atom_site_fract_x
  _atom_site_fract_y
  _atom_site_fract_z
  _atom_site_thermal_displace_type
  _atom_site_B_iso_or_equiv
  _atom_site_type_symbol
  Cd1      1.0000 0.50000  0.00000  0.12400  Biso   1.000  Cd
  O1       1.0000 0.41499  0.02638  0.23373  Biso   1.000  O 
  C1       1.0000 0.41208  0.97534  0.28200  Biso   1.000  C 
  O2       1.0000 0.44460  0.92879  0.26310  Biso   1.000  O 
  C2       1.0000 0.36477  0.97217  0.36960  Biso   1.000  C 
  C3       1.0000 0.34524  0.91543  0.40830  Biso   1.000  C 
  H1       1.0000 0.36050  0.87860  0.37950  Biso   1.000  H 
  C4       1.0000 0.30310  0.91318  0.48965  Biso   1.000  C 
  H2       1.0000 0.29010  0.87480  0.51570  Biso   1.000  H 
  N1       1.0000 0.28071  0.96626  0.53166  Biso   1.000  N 
  C5       1.0000 0.23807  0.96232  0.62410  Biso   1.000  C 
  H3       1.0000 0.20700  0.99590  0.62240  Biso   1.000  H 
  H4       1.0000 0.21510  0.92300  0.62360  Biso   1.000  H 
  C6       1.0000 0.27808  0.96714  0.72050  Biso   1.000  C 
  C7       1.0000 0.30405  0.91420  0.76440  Biso   1.000  C 
  H5       1.0000 0.29460  0.87510  0.73730  Biso   1.000  H 
  C8       1.0000 0.34434  0.91914  0.84925  Biso   1.000  C 
  H6       1.0000 0.36160  0.88340  0.87880  Biso   1.000  H 
  C9       1.0000 0.35873  0.97737  0.88960  Biso   1.000  C 
  C10      1.0000 0.40616  0.98360  0.97690  Biso   1.000  C 
  O3       1.0000 0.43083  0.03596  0.99379  Biso   1.000  O 
  O4       1.0000 0.42027  0.93568  0.02784  Biso   1.000  O 
  C11      1.0000 0.33005  0.03037  0.84795  Biso   1.000  C 
  C12      1.0000 0.29048  0.02553  0.76300  Biso   1.000  C 
  H7       1.0000 0.27230  0.06110  0.73440  Biso   1.000  H 
  H8       1.0000 0.33750  0.06920  0.87740  Biso   1.000  H 
  C13      1.0000 0.29823  0.02246  0.49450  Biso   1.000  C 
  C14      1.0000 0.33936  0.02637  0.41340  Biso   1.000  C 
  H9       1.0000 0.35060  0.06520  0.38730  Biso   1.000  H 
  H10      1.0000 0.28220  0.05870  0.52420  Biso   1.000  H 
  O5       1.0000 0.57973  0.06432  0.02784  Biso   1.000  O 
  C15      1.0000 0.59384  0.01640  0.97690  Biso   1.000  C 
  O6       1.0000 0.56917  0.96404  0.99379  Biso   1.000  O 
  C16      1.0000 0.64127  0.02263  0.88960  Biso   1.000  C 
  C17      1.0000 0.65566  0.08086  0.84925  Biso   1.000  C 
  H11      1.0000 0.63840  0.11660  0.87880  Biso   1.000  H 
  C18      1.0000 0.69595  0.08580  0.76440  Biso   1.000  C 
  H12      1.0000 0.70540  0.12490  0.73730  Biso   1.000  H 
  C19      1.0000 0.72192  0.03286  0.72050  Biso   1.000  C 
  C20      1.0000 0.76193  0.03768  0.62410  Biso   1.000  C 
  H13      1.0000 0.78490  0.07700  0.62360  Biso   1.000  H 
  H14      1.0000 0.79300  0.00410  0.62240  Biso   1.000  H 
  N2       1.0000 0.71929  0.03374  0.53166  Biso   1.000  N 
  C21      1.0000 0.69690  0.08682  0.48965  Biso   1.000  C 
  H15      1.0000 0.70990  0.12520  0.51570  Biso   1.000  H 
  C22      1.0000 0.65476  0.08457  0.40830  Biso   1.000  C 
  H16      1.0000 0.63950  0.12140  0.37950  Biso   1.000  H 
  C23      1.0000 0.63523  0.02783  0.36960  Biso   1.000  C 
  C24      1.0000 0.58792  0.02466  0.28200  Biso   1.000  C 
  O7       1.0000 0.55540  0.07121  0.26310  Biso   1.000  O 
  O8       1.0000 0.58501  0.97362  0.23373  Biso   1.000  O 
  C25      1.0000 0.66064  0.97363  0.41340  Biso   1.000  C 
  H17      1.0000 0.64940  0.93480  0.38730  Biso   1.000  H 
  C26      1.0000 0.70177  0.97754  0.49450  Biso   1.000  C 
  H18      1.0000 0.71780  0.94130  0.52420  Biso   1.000  H 
  C27      1.0000 0.70952  0.97447  0.76300  Biso   1.000  C 
  H19      1.0000 0.72770  0.93890  0.73440  Biso   1.000  H 
  C28      1.0000 0.66995  0.96963  0.84795  Biso   1.000  C 
  H20      1.0000 0.66250  0.93080  0.87740  Biso   1.000  H 
