data_image0
_cell_length_a       20.517
_cell_length_b       16.462
_cell_length_c       16.991
_cell_angle_alpha    90
_cell_angle_beta     109.832
_cell_angle_gamma    90

_symmetry_space_group_name_H-M    "P 1"
_symmetry_int_tables_number       1

loop_
  _symmetry_equiv_pos_as_xyz
  'x, y, z'

loop_
  _atom_site_label
  _atom_site_occupancy
  _atom_site_fract_x
  _atom_site_fract_y
  _atom_site_fract_z
  _atom_site_thermal_displace_type
  _atom_site_B_iso_or_equiv
  _atom_site_type_symbol
  Br1      1.0000 0.41889  0.23975  0.17131  Biso   1.000  Br
  C1       1.0000 0.36470  0.23030  0.05850  Biso   1.000  C 
  C2       1.0000 0.35810  0.29560  0.00560  Biso   1.000  C 
  O1       1.0000 0.38790  0.36610  0.03950  Biso   1.000  O 
  C3       1.0000 0.38540  0.43280  0.99010  Biso   1.000  C 
  C4       1.0000 0.41410  0.50410  0.02930  Biso   1.000  C 
  Br2      1.0000 0.44974  0.51007  0.14707  Biso   1.000  Br
  Co1      1.0000 0.47678  0.68980  0.12539  Biso   1.000  Co
  O2       1.0000 0.40840  0.71300  0.17720  Biso   1.000  O 
  C5       1.0000 0.38830  0.68490  0.23440  Biso   1.000  C 
  O3       1.0000 0.42760  0.66880  0.30640  Biso   1.000  O 
  Co2      1.0000 0.52322  0.68980  0.37461  Biso   1.000  Co
  O4       1.0000 0.59160  0.71300  0.32280  Biso   1.000  O 
  C6       1.0000 0.61170  0.68490  0.26560  Biso   1.000  C 
  O5       1.0000 0.57240  0.66880  0.19360  Biso   1.000  O 
  C7       1.0000 0.68780  0.66900  0.28730  Biso   1.000  C 
  C8       1.0000 0.71650  0.65140  0.22580  Biso   1.000  C 
  C9       1.0000 0.67730  0.64640  0.13410  Biso   1.000  C 
  C10      1.0000 0.64490  0.57230  0.09610  Biso   1.000  C 
  C11      1.0000 0.64280  0.50250  0.14400  Biso   1.000  C 
  C12      1.0000 0.61120  0.43380  0.10450  Biso   1.000  C 
  C13      1.0000 0.58140  0.42650  0.01660  Biso   1.000  C 
  O6       1.0000 0.55430  0.35850  0.98350  Biso   1.000  O 
  Co3      1.0000 0.52322  0.31020  0.87461  Biso   1.000  Co
  N1       1.0000 0.51310  0.19520  0.91900  Biso   1.000  N 
  C14      1.0000 0.52490  0.12870  0.88250  Biso   1.000  C 
  C15      1.0000 0.51520  0.05110  0.91010  Biso   1.000  C 
  C16      1.0000 0.50110  0.04140  0.98320  Biso   1.000  C 
  C17      1.0000 0.49480  0.10950  0.02140  Biso   1.000  C 
  H1       1.0000 0.48520  0.10640  0.07100  Biso   1.000  H 
  C18      1.0000 0.50210  0.18530  0.98990  Biso   1.000  C 
  H2       1.0000 0.49900  0.23110  0.02040  Biso   1.000  H 
  C19      1.0000 0.49890  0.95860  0.01680  Biso   1.000  C 
  C20      1.0000 0.48480  0.94890  0.08990  Biso   1.000  C 
  H3       1.0000 0.48160  0.99430  0.12110  Biso   1.000  H 
  C21      1.0000 0.47510  0.87130  0.11750  Biso   1.000  C 
  H4       1.0000 0.45990  0.86640  0.16300  Biso   1.000  H 
  N2       1.0000 0.48690  0.80480  0.08100  Biso   1.000  N 
  C22      1.0000 0.49790  0.81470  0.01010  Biso   1.000  C 
  C23      1.0000 0.50520  0.89050  0.97860  Biso   1.000  C 
  H5       1.0000 0.51480  0.89360  0.92900  Biso   1.000  H 
  H6       1.0000 0.50100  0.76890  0.97960  Biso   1.000  H 
  H7       1.0000 0.51840  0.00570  0.87890  Biso   1.000  H 
  H8       1.0000 0.54010  0.13360  0.83700  Biso   1.000  H 
  O7       1.0000 0.42760  0.33120  0.80640  Biso   1.000  O 
  C24      1.0000 0.38830  0.31510  0.73440  Biso   1.000  C 
  O8       1.0000 0.40840  0.28700  0.67720  Biso   1.000  O 
  Co4      1.0000 0.47678  0.31020  0.62539  Biso   1.000  Co
  O9       1.0000 0.44570  0.35850  0.51650  Biso   1.000  O 
  C25      1.0000 0.41860  0.42650  0.48340  Biso   1.000  C 
  C26      1.0000 0.41410  0.49590  0.52930  Biso   1.000  C 
  C27      1.0000 0.38540  0.56720  0.49010  Biso   1.000  C 
  O10      1.0000 0.38790  0.63390  0.53950  Biso   1.000  O 
  C28      1.0000 0.35810  0.70440  0.50560  Biso   1.000  C 
  C29      1.0000 0.32230  0.71140  0.41770  Biso   1.000  C 
  C30      1.0000 0.28970  0.78900  0.38660  Biso   1.000  C 
  H9       1.0000 0.26560  0.79570  0.32980  Biso   1.000  H 
  C31      1.0000 0.29430  0.85080  0.43930  Biso   1.000  C 
  C32      1.0000 0.33280  0.84670  0.53040  Biso   1.000  C 
  C33      1.0000 0.36470  0.76970  0.55850  Biso   1.000  C 
  Br3      1.0000 0.41889  0.76025  0.67131  Biso   1.000  Br
  O11      1.0000 0.33750  0.90500  0.57660  Biso   1.000  O 
  Br4      1.0000 0.25244  0.95057  0.40003  Biso   1.000  Br
  C34      1.0000 0.32270  0.64640  0.36590  Biso   1.000  C 
  C35      1.0000 0.35510  0.57230  0.40390  Biso   1.000  C 
  C36      1.0000 0.35720  0.50250  0.35600  Biso   1.000  C 
  C37      1.0000 0.38880  0.43380  0.39550  Biso   1.000  C 
  Br5      1.0000 0.39213  0.34320  0.32965  Biso   1.000  Br
  H10      1.0000 0.33710  0.50360  0.29810  Biso   1.000  H 
  C38      1.0000 0.28350  0.65140  0.27420  Biso   1.000  C 
  C39      1.0000 0.21210  0.63520  0.25050  Biso   1.000  C 
  C40      1.0000 0.17120  0.63780  0.16800  Biso   1.000  C 
  H11      1.0000 0.12420  0.62660  0.15310  Biso   1.000  H 
  C41      1.0000 0.19820  0.65650  0.10790  Biso   1.000  C 
  H12      1.0000 0.16930  0.65930  0.05240  Biso   1.000  H 
  C42      1.0000 0.27010  0.67170  0.12890  Biso   1.000  C 
  C43      1.0000 0.31220  0.66900  0.21270  Biso   1.000  C 
  H13      1.0000 0.28880  0.68330  0.08740  Biso   1.000  H 
  H14      1.0000 0.19260  0.62270  0.29110  Biso   1.000  H 
  Br6      1.0000 0.44974  0.48993  0.64707  Biso   1.000  Br
  N3       1.0000 0.48690  0.19520  0.58100  Biso   1.000  N 
  C44      1.0000 0.49790  0.18530  0.51010  Biso   1.000  C 
  H15      1.0000 0.50100  0.23110  0.47960  Biso   1.000  H 
  C45      1.0000 0.50520  0.10950  0.47860  Biso   1.000  C 
  H16      1.0000 0.51480  0.10640  0.42900  Biso   1.000  H 
  C46      1.0000 0.49890  0.04140  0.51680  Biso   1.000  C 
  C47      1.0000 0.48480  0.05110  0.58990  Biso   1.000  C 
  H17      1.0000 0.48160  0.00570  0.62110  Biso   1.000  H 
  C48      1.0000 0.47510  0.12870  0.61750  Biso   1.000  C 
  H18      1.0000 0.45990  0.13360  0.66300  Biso   1.000  H 
  C49      1.0000 0.50110  0.95860  0.48320  Biso   1.000  C 
  C50      1.0000 0.49480  0.89050  0.52140  Biso   1.000  C 
  H19      1.0000 0.48520  0.89360  0.57100  Biso   1.000  H 
  C51      1.0000 0.50210  0.81470  0.48990  Biso   1.000  C 
  H20      1.0000 0.49900  0.76890  0.52040  Biso   1.000  H 
  N4       1.0000 0.51310  0.80480  0.41900  Biso   1.000  N 
  C52      1.0000 0.52490  0.87130  0.38250  Biso   1.000  C 
  H21      1.0000 0.54010  0.86640  0.33700  Biso   1.000  H 
  C53      1.0000 0.51520  0.94890  0.41010  Biso   1.000  C 
  H22      1.0000 0.51840  0.99430  0.37890  Biso   1.000  H 
  O12      1.0000 0.57240  0.33120  0.69360  Biso   1.000  O 
  C54      1.0000 0.61170  0.31510  0.76560  Biso   1.000  C 
  O13      1.0000 0.59160  0.28700  0.82280  Biso   1.000  O 
  C55      1.0000 0.68780  0.33100  0.78730  Biso   1.000  C 
  C56      1.0000 0.71650  0.34860  0.72580  Biso   1.000  C 
  C57      1.0000 0.67730  0.35360  0.63410  Biso   1.000  C 
  C58      1.0000 0.64490  0.42770  0.59610  Biso   1.000  C 
  C59      1.0000 0.64280  0.49750  0.64400  Biso   1.000  C 
  H23      1.0000 0.66290  0.49640  0.70190  Biso   1.000  H 
  C60      1.0000 0.61120  0.56620  0.60450  Biso   1.000  C 
  C61      1.0000 0.58140  0.57350  0.51660  Biso   1.000  C 
  C62      1.0000 0.58590  0.50410  0.47070  Biso   1.000  C 
  C63      1.0000 0.61460  0.43280  0.50990  Biso   1.000  C 
  O14      1.0000 0.61210  0.36610  0.46050  Biso   1.000  O 
  C64      1.0000 0.64190  0.29560  0.49440  Biso   1.000  C 
  C65      1.0000 0.67770  0.28860  0.58230  Biso   1.000  C 
  C66      1.0000 0.71030  0.21100  0.61340  Biso   1.000  C 
  C67      1.0000 0.70570  0.14920  0.56070  Biso   1.000  C 
  C68      1.0000 0.66720  0.15330  0.46960  Biso   1.000  C 
  C69      1.0000 0.63530  0.23030  0.44150  Biso   1.000  C 
  Br7      1.0000 0.58111  0.23975  0.32869  Biso   1.000  Br
  O15      1.0000 0.66250  0.09500  0.42340  Biso   1.000  O 
  Br8      1.0000 0.74756  0.04943  0.59997  Biso   1.000  Br
  H24      1.0000 0.73440  0.20430  0.67020  Biso   1.000  H 
  Br9      1.0000 0.55026  0.51007  0.35293  Biso   1.000  Br
  O16      1.0000 0.55430  0.64150  0.48350  Biso   1.000  O 
  Br10     1.0000 0.60787  0.65680  0.67035  Biso   1.000  Br
  C70      1.0000 0.78790  0.36480  0.74950  Biso   1.000  C 
  H25      1.0000 0.80740  0.37730  0.70890  Biso   1.000  H 
  C71      1.0000 0.82880  0.36220  0.83200  Biso   1.000  C 
  H26      1.0000 0.87580  0.37340  0.84690  Biso   1.000  H 
  C72      1.0000 0.80180  0.34350  0.89210  Biso   1.000  C 
  C73      1.0000 0.72990  0.32830  0.87110  Biso   1.000  C 
  H27      1.0000 0.71120  0.31670  0.91260  Biso   1.000  H 
  H28      1.0000 0.83070  0.34070  0.94760  Biso   1.000  H 
  C74      1.0000 0.31220  0.33100  0.71270  Biso   1.000  C 
  C75      1.0000 0.28350  0.34860  0.77420  Biso   1.000  C 
  C76      1.0000 0.32270  0.35360  0.86590  Biso   1.000  C 
  C77      1.0000 0.35510  0.42770  0.90390  Biso   1.000  C 
  C78      1.0000 0.35720  0.49750  0.85600  Biso   1.000  C 
  H29      1.0000 0.33710  0.49640  0.79810  Biso   1.000  H 
  C79      1.0000 0.38880  0.56620  0.89550  Biso   1.000  C 
  C80      1.0000 0.41860  0.57350  0.98340  Biso   1.000  C 
  O17      1.0000 0.44570  0.64150  0.01650  Biso   1.000  O 
  Br11     1.0000 0.39213  0.65680  0.82965  Biso   1.000  Br
  C81      1.0000 0.32230  0.28860  0.91770  Biso   1.000  C 
  C82      1.0000 0.28970  0.21100  0.88660  Biso   1.000  C 
  H30      1.0000 0.26560  0.20430  0.82980  Biso   1.000  H 
  C83      1.0000 0.29430  0.14920  0.93930  Biso   1.000  C 
  C84      1.0000 0.33280  0.15330  0.03040  Biso   1.000  C 
  O18      1.0000 0.33750  0.09500  0.07660  Biso   1.000  O 
  Br12     1.0000 0.25244  0.04943  0.90003  Biso   1.000  Br
  C85      1.0000 0.21210  0.36480  0.75050  Biso   1.000  C 
  H31      1.0000 0.19260  0.37730  0.79110  Biso   1.000  H 
  C86      1.0000 0.17120  0.36220  0.66800  Biso   1.000  C 
  H32      1.0000 0.12420  0.37340  0.65310  Biso   1.000  H 
  C87      1.0000 0.19820  0.34350  0.60790  Biso   1.000  C 
  H33      1.0000 0.16930  0.34070  0.55240  Biso   1.000  H 
  C88      1.0000 0.27010  0.32830  0.62890  Biso   1.000  C 
  H34      1.0000 0.28880  0.31670  0.58740  Biso   1.000  H 
  Br13     1.0000 0.55026  0.48993  0.85293  Biso   1.000  Br
  C89      1.0000 0.58590  0.49590  0.97070  Biso   1.000  C 
  C90      1.0000 0.61460  0.56720  0.00990  Biso   1.000  C 
  O19      1.0000 0.61210  0.63390  0.96050  Biso   1.000  O 
  C91      1.0000 0.64190  0.70440  0.99440  Biso   1.000  C 
  C92      1.0000 0.67770  0.71140  0.08230  Biso   1.000  C 
  C93      1.0000 0.71030  0.78900  0.11340  Biso   1.000  C 
  C94      1.0000 0.70570  0.85080  0.06070  Biso   1.000  C 
  Br14     1.0000 0.74756  0.95057  0.09997  Biso   1.000  Br
  C95      1.0000 0.66720  0.84670  0.96960  Biso   1.000  C 
  C96      1.0000 0.63530  0.76970  0.94150  Biso   1.000  C 
  Br15     1.0000 0.58111  0.76025  0.82869  Biso   1.000  Br
  O20      1.0000 0.66250  0.90500  0.92340  Biso   1.000  O 
  H35      1.0000 0.73440  0.79570  0.17020  Biso   1.000  H 
  Br16     1.0000 0.60787  0.34320  0.17035  Biso   1.000  Br
  H36      1.0000 0.66290  0.50360  0.20190  Biso   1.000  H 
  C97      1.0000 0.78790  0.63520  0.24950  Biso   1.000  C 
  C98      1.0000 0.82880  0.63780  0.33200  Biso   1.000  C 
  C99      1.0000 0.80180  0.65650  0.39210  Biso   1.000  C 
  C100     1.0000 0.72990  0.67170  0.37110  Biso   1.000  C 
  H37      1.0000 0.71120  0.68330  0.41260  Biso   1.000  H 
  H38      1.0000 0.83070  0.65930  0.44760  Biso   1.000  H 
  H39      1.0000 0.87580  0.62660  0.34690  Biso   1.000  H 
  H40      1.0000 0.80740  0.62270  0.20890  Biso   1.000  H 
