data_image0
_cell_length_a       13.7058
_cell_length_b       13.7058
_cell_length_c       9.4887
_cell_angle_alpha    90
_cell_angle_beta     90
_cell_angle_gamma    120

_symmetry_space_group_name_H-M    "P 1"
_symmetry_int_tables_number       1

loop_
  _symmetry_equiv_pos_as_xyz
  'x, y, z'

loop_
  _atom_site_label
  _atom_site_occupancy
  _atom_site_fract_x
  _atom_site_fract_y
  _atom_site_fract_z
  _atom_site_thermal_displace_type
  _atom_site_B_iso_or_equiv
  _atom_site_type_symbol
  C1       1.0000 0.74740  0.19190  0.81530  Biso   1.000  C 
  O1       1.0000 0.67680  0.21780  0.86070  Biso   1.000  O 
  Cr1      1.0000 0.66670  0.33330  0.75000  Biso   1.000  Cr
  O2       1.0000 0.54100  0.21780  0.63930  Biso   1.000  O 
  C2       1.0000 0.44450  0.19190  0.68470  Biso   1.000  C 
  C3       1.0000 0.34530  0.10610  0.63300  Biso   1.000  C 
  Br1      1.0000 0.34530  0.03120  0.46980  Biso   1.000  Br
  C4       1.0000 0.24090  0.08570  0.68700  Biso   1.000  C 
  O3       1.0000 0.14610  0.01650  0.63920  Biso   1.000  O 
  Mn1      1.0000 0.00000  0.00000  0.75000  Biso   1.000  Mn
  O4       1.0000 0.14610  0.12960  0.86080  Biso   1.000  O 
  C5       1.0000 0.24090  0.15520  0.81300  Biso   1.000  C 
  C6       1.0000 0.34530  0.23920  0.86700  Biso   1.000  C 
  Br2      1.0000 0.34530  0.31410  0.03020  Biso   1.000  Br
  C7       1.0000 0.44450  0.25260  0.81530  Biso   1.000  C 
  O5       1.0000 0.54100  0.32320  0.86070  Biso   1.000  O 
  O6       1.0000 0.87040  0.01650  0.86080  Biso   1.000  O 
  C8       1.0000 0.84480  0.08570  0.81300  Biso   1.000  C 
  C9       1.0000 0.76080  0.10610  0.86700  Biso   1.000  C 
  Br3      1.0000 0.68590  0.03120  0.03020  Biso   1.000  Br
  C10      1.0000 0.91430  0.15520  0.68700  Biso   1.000  C 
  O7       1.0000 0.98350  0.12960  0.63920  Biso   1.000  O 
  C11      1.0000 0.89390  0.23920  0.63300  Biso   1.000  C 
  Br4      1.0000 0.96880  0.31410  0.46980  Biso   1.000  Br
  C12      1.0000 0.80810  0.25260  0.68470  Biso   1.000  C 
  O8       1.0000 0.78220  0.32320  0.63930  Biso   1.000  O 
  O9       1.0000 0.98350  0.85390  0.86080  Biso   1.000  O 
  C13      1.0000 0.91430  0.75910  0.81300  Biso   1.000  C 
  C14      1.0000 0.84480  0.75910  0.68700  Biso   1.000  C 
  O10      1.0000 0.87040  0.85390  0.63920  Biso   1.000  O 
  C15      1.0000 0.76080  0.65470  0.63300  Biso   1.000  C 
  Br5      1.0000 0.68590  0.65470  0.46980  Biso   1.000  Br
  C16      1.0000 0.74740  0.55550  0.68470  Biso   1.000  C 
  O11      1.0000 0.67680  0.45900  0.63930  Biso   1.000  O 
  C17      1.0000 0.80810  0.55550  0.81530  Biso   1.000  C 
  O12      1.0000 0.78220  0.45900  0.86070  Biso   1.000  O 
  C18      1.0000 0.89390  0.65470  0.86700  Biso   1.000  C 
  Br6      1.0000 0.96880  0.65470  0.03020  Biso   1.000  Br
