data_image0
_cell_length_a       10.4301
_cell_length_b       12.4754
_cell_length_c       17.4787
_cell_angle_alpha    90
_cell_angle_beta     95.621
_cell_angle_gamma    90

_symmetry_space_group_name_H-M    "P 1"
_symmetry_int_tables_number       1

loop_
  _symmetry_equiv_pos_as_xyz
  'x, y, z'

loop_
  _atom_site_label
  _atom_site_occupancy
  _atom_site_fract_x
  _atom_site_fract_y
  _atom_site_fract_z
  _atom_site_thermal_displace_type
  _atom_site_B_iso_or_equiv
  _atom_site_type_symbol
  Zn1      1.0000 0.73382  0.73436  0.60695  Biso   1.000  Zn
  N1       1.0000 0.57340  0.79350  0.55570  Biso   1.000  N 
  N2       1.0000 0.58010  0.85080  0.48940  Biso   1.000  N 
  C1       1.0000 0.46160  0.85330  0.45710  Biso   1.000  C 
  C2       1.0000 0.45020  0.76540  0.55920  Biso   1.000  C 
  C3       1.0000 0.39790  0.70800  0.62390  Biso   1.000  C 
  H1       1.0000 0.34410  0.64800  0.60370  Biso   1.000  H 
  H2       1.0000 0.46920  0.68070  0.65920  Biso   1.000  H 
  H3       1.0000 0.34570  0.75750  0.65150  Biso   1.000  H 
  N3       1.0000 0.37770  0.80420  0.49800  Biso   1.000  N 
  Zn2      1.0000 0.20972  0.74259  0.45234  Biso   1.000  Zn
  N4       1.0000 0.23180  0.58450  0.46580  Biso   1.000  N 
  C4       1.0000 0.28280  0.50860  0.42420  Biso   1.000  C 
  C5       1.0000 0.38010  0.53380  0.36850  Biso   1.000  C 
  H4       1.0000 0.41490  0.46680  0.34980  Biso   1.000  H 
  H5       1.0000 0.33830  0.57440  0.32500  Biso   1.000  H 
  H6       1.0000 0.45030  0.57640  0.39440  Biso   1.000  H 
  N5       1.0000 0.24440  0.41100  0.44050  Biso   1.000  N 
  C6       1.0000 0.16620  0.43000  0.49700  Biso   1.000  C 
  N6       1.0000 0.15670  0.53140  0.51370  Biso   1.000  N 
  C7       1.0000 0.09150  0.34830  0.53400  Biso   1.000  C 
  O1       1.0000 0.04820  0.36280  0.59460  Biso   1.000  O 
  C8       1.0000 0.04720  0.25320  0.48600  Biso   1.000  C 
  N7       1.0000 0.10800  0.20490  0.43100  Biso   1.000  N 
  C9       1.0000 0.02730  0.12460  0.40830  Biso   1.000  C 
  N8       1.0000 0.92260  0.12250  0.44560  Biso   1.000  N 
  N9       1.0000 0.93650  0.20440  0.49630  Biso   1.000  N 
  Zn3      1.0000 0.79028  0.25741  0.54766  Biso   1.000  Zn
  N10      1.0000 0.76820  0.41550  0.53420  Biso   1.000  N 
  C10      1.0000 0.71720  0.49140  0.57580  Biso   1.000  C 
  C11      1.0000 0.61990  0.46620  0.63150  Biso   1.000  C 
  H7       1.0000 0.54970  0.42360  0.60560  Biso   1.000  H 
  H8       1.0000 0.66170  0.42560  0.67500  Biso   1.000  H 
  H9       1.0000 0.58510  0.53320  0.65020  Biso   1.000  H 
  N11      1.0000 0.75560  0.58900  0.55950  Biso   1.000  N 
  C12      1.0000 0.83380  0.57000  0.50300  Biso   1.000  C 
  N12      1.0000 0.84330  0.46860  0.48630  Biso   1.000  N 
  C13      1.0000 0.90850  0.65170  0.46600  Biso   1.000  C 
  O2       1.0000 0.95180  0.63720  0.40540  Biso   1.000  O 
  C14      1.0000 0.95280  0.74680  0.51400  Biso   1.000  C 
  N13      1.0000 0.06350  0.79560  0.50370  Biso   1.000  N 
  N14      1.0000 0.07740  0.87750  0.55440  Biso   1.000  N 
  C15      1.0000 0.97270  0.87540  0.59170  Biso   1.000  C 
  N15      1.0000 0.89200  0.79510  0.56900  Biso   1.000  N 
  C16      1.0000 0.95020  0.95350  0.65370  Biso   1.000  C 
  H10      1.0000 0.93420  0.91450  0.70050  Biso   1.000  H 
  H11      1.0000 0.87520  0.99810  0.63710  Biso   1.000  H 
  H12      1.0000 0.02630  0.99920  0.66420  Biso   1.000  H 
  N16      1.0000 0.62230  0.19580  0.50200  Biso   1.000  N 
  C17      1.0000 0.54980  0.23460  0.44080  Biso   1.000  C 
  C18      1.0000 0.60210  0.29200  0.37610  Biso   1.000  C 
  H13      1.0000 0.65430  0.24250  0.34850  Biso   1.000  H 
  H14      1.0000 0.53080  0.31930  0.34080  Biso   1.000  H 
  H15      1.0000 0.65590  0.35200  0.39630  Biso   1.000  H 
  N17      1.0000 0.42660  0.20650  0.44430  Biso   1.000  N 
  N18      1.0000 0.41990  0.14920  0.51060  Biso   1.000  N 
  C19      1.0000 0.53840  0.14670  0.54290  Biso   1.000  C 
  C20      1.0000 0.58120  0.08620  0.61550  Biso   1.000  C 
  H16      1.0000 0.50400  0.06220  0.63940  Biso   1.000  H 
  H17      1.0000 0.62900  0.02140  0.60190  Biso   1.000  H 
  C21      1.0000 0.66650  0.15120  0.67420  Biso   1.000  C 
  N19      1.0000 0.76090  0.21810  0.65570  Biso   1.000  N 
  C22      1.0000 0.80740  0.25810  0.72420  Biso   1.000  C 
  N20      1.0000 0.74880  0.21630  0.77970  Biso   1.000  N 
  Zn4      1.0000 0.76618  0.23436  0.89305  Biso   1.000  Zn
  N21      1.0000 0.60800  0.29510  0.93100  Biso   1.000  N 
  C23      1.0000 0.52730  0.37540  0.90830  Biso   1.000  C 
  C24      1.0000 0.54720  0.24680  0.98600  Biso   1.000  C 
  C25      1.0000 0.59150  0.15170  0.03400  Biso   1.000  C 
  O3       1.0000 0.54820  0.13720  0.09460  Biso   1.000  O 
  C26      1.0000 0.66620  0.07000  0.99700  Biso   1.000  C 
  N22      1.0000 0.74440  0.08900  0.94050  Biso   1.000  N 
  C27      1.0000 0.78280  0.99140  0.92420  Biso   1.000  C 
  C28      1.0000 0.88010  0.96620  0.86850  Biso   1.000  C 
  H18      1.0000 0.83830  0.92560  0.82500  Biso   1.000  H 
  H19      1.0000 0.95030  0.92360  0.89440  Biso   1.000  H 
  H20      1.0000 0.91490  0.03320  0.84980  Biso   1.000  H 
  N23      1.0000 0.73180  0.91550  0.96580  Biso   1.000  N 
  N24      1.0000 0.65670  0.96860  0.01370  Biso   1.000  N 
  Zn5      1.0000 0.70972  0.75741  0.95234  Biso   1.000  Zn
  N25      1.0000 0.73910  0.71810  0.84430  Biso   1.000  N 
  C29      1.0000 0.69260  0.75810  0.77580  Biso   1.000  C 
  C30      1.0000 0.83350  0.65120  0.82580  Biso   1.000  C 
  C31      1.0000 0.91880  0.58620  0.88450  Biso   1.000  C 
  H21      1.0000 0.99600  0.56220  0.86060  Biso   1.000  H 
  C32      1.0000 0.96160  0.64670  0.95710  Biso   1.000  C 
  C33      1.0000 0.95020  0.73460  0.05920  Biso   1.000  C 
  C34      1.0000 0.89790  0.79200  0.12390  Biso   1.000  C 
  H22      1.0000 0.84410  0.85200  0.10370  Biso   1.000  H 
  H23      1.0000 0.84570  0.74250  0.15150  Biso   1.000  H 
  H24      1.0000 0.96920  0.81930  0.15920  Biso   1.000  H 
  N26      1.0000 0.07340  0.70650  0.05570  Biso   1.000  N 
  Zn6      1.0000 0.23382  0.76564  0.10695  Biso   1.000  Zn
  N27      1.0000 0.25120  0.78370  0.22030  Biso   1.000  N 
  C35      1.0000 0.19260  0.74190  0.27580  Biso   1.000  C 
  C36      1.0000 0.33350  0.84880  0.32580  Biso   1.000  C 
  C37      1.0000 0.41880  0.91380  0.38450  Biso   1.000  C 
  H25      1.0000 0.37100  0.97860  0.39810  Biso   1.000  H 
  H26      1.0000 0.49600  0.93780  0.36060  Biso   1.000  H 
  N28      1.0000 0.23910  0.78190  0.34430  Biso   1.000  N 
  N29      1.0000 0.34520  0.85150  0.25220  Biso   1.000  N 
  C38      1.0000 0.09180  0.65250  0.26380  Biso   1.000  C 
  H27      1.0000 0.09280  0.62270  0.21200  Biso   1.000  H 
  H28      1.0000 0.00620  0.68180  0.26980  Biso   1.000  H 
  H29      1.0000 0.11190  0.59580  0.30190  Biso   1.000  H 
  N30      1.0000 0.25560  0.91100  0.05950  Biso   1.000  N 
  C39      1.0000 0.33380  0.93000  0.00300  Biso   1.000  C 
  N31      1.0000 0.34330  0.03140  0.98630  Biso   1.000  N 
  N32      1.0000 0.26820  0.08450  0.03420  Biso   1.000  N 
  C40      1.0000 0.21720  0.00860  0.07580  Biso   1.000  C 
  C41      1.0000 0.11990  0.03380  0.13150  Biso   1.000  C 
  H30      1.0000 0.04970  0.07640  0.10560  Biso   1.000  H 
  H31      1.0000 0.16170  0.07440  0.17500  Biso   1.000  H 
  H32      1.0000 0.08510  0.96680  0.15020  Biso   1.000  H 
  Zn7      1.0000 0.29028  0.24259  0.04766  Biso   1.000  Zn
  N33      1.0000 0.12230  0.30420  0.00200  Biso   1.000  N 
  C42      1.0000 0.03840  0.35330  0.04290  Biso   1.000  C 
  N34      1.0000 0.91990  0.35080  0.01060  Biso   1.000  N 
  N35      1.0000 0.92660  0.29350  0.94430  Biso   1.000  N 
  C43      1.0000 0.04980  0.26540  0.94080  Biso   1.000  C 
  C44      1.0000 0.10210  0.20800  0.87610  Biso   1.000  C 
  H33      1.0000 0.03080  0.18070  0.84080  Biso   1.000  H 
  H34      1.0000 0.15430  0.25750  0.84850  Biso   1.000  H 
  H35      1.0000 0.15590  0.14800  0.89630  Biso   1.000  H 
  C45      1.0000 0.08120  0.41380  0.11550  Biso   1.000  C 
  H36      1.0000 0.12900  0.47860  0.10190  Biso   1.000  H 
  H37      1.0000 0.00400  0.43780  0.13940  Biso   1.000  H 
  C46      1.0000 0.16650  0.34880  0.17420  Biso   1.000  C 
  N36      1.0000 0.26090  0.28190  0.15570  Biso   1.000  N 
  C47      1.0000 0.30740  0.24190  0.22420  Biso   1.000  C 
  N37      1.0000 0.24880  0.28370  0.27970  Biso   1.000  N 
  Zn8      1.0000 0.26618  0.26564  0.39305  Biso   1.000  Zn
  N38      1.0000 0.15480  0.35150  0.24780  Biso   1.000  N 
  C48      1.0000 0.40820  0.15250  0.23620  Biso   1.000  C 
  H38      1.0000 0.38810  0.09580  0.19810  Biso   1.000  H 
  H39      1.0000 0.49380  0.18180  0.23020  Biso   1.000  H 
  H40      1.0000 0.40720  0.12270  0.28800  Biso   1.000  H 
  N39      1.0000 0.43650  0.29560  0.99630  Biso   1.000  N 
  N40      1.0000 0.42260  0.37750  0.94560  Biso   1.000  N 
  C49      1.0000 0.40850  0.84830  0.96600  Biso   1.000  C 
  O4       1.0000 0.45180  0.86280  0.90540  Biso   1.000  O 
  C50      1.0000 0.45280  0.75320  0.01400  Biso   1.000  C 
  N41      1.0000 0.39200  0.70490  0.06900  Biso   1.000  N 
  C51      1.0000 0.47270  0.62460  0.09170  Biso   1.000  C 
  N42      1.0000 0.57740  0.62250  0.05440  Biso   1.000  N 
  N43      1.0000 0.56350  0.70440  0.00370  Biso   1.000  N 
  C52      1.0000 0.45020  0.54650  0.15370  Biso   1.000  C 
  H41      1.0000 0.37520  0.50190  0.13710  Biso   1.000  H 
  H42      1.0000 0.52630  0.50080  0.16420  Biso   1.000  H 
  H43      1.0000 0.43420  0.58550  0.20050  Biso   1.000  H 
  N44      1.0000 0.08010  0.64920  0.98940  Biso   1.000  N 
  N45      1.0000 0.87770  0.69580  0.99800  Biso   1.000  N 
  H44      1.0000 0.87100  0.52140  0.89810  Biso   1.000  H 
  N46      1.0000 0.84520  0.64850  0.75220  Biso   1.000  N 
  N47      1.0000 0.75120  0.71630  0.72030  Biso   1.000  N 
  C53      1.0000 0.59180  0.84750  0.76380  Biso   1.000  C 
  H45      1.0000 0.59280  0.87730  0.71200  Biso   1.000  H 
  H46      1.0000 0.50620  0.81820  0.76980  Biso   1.000  H 
  H47      1.0000 0.61190  0.90420  0.80190  Biso   1.000  H 
  C54      1.0000 0.54980  0.45350  0.84630  Biso   1.000  C 
  H48      1.0000 0.56580  0.41450  0.79950  Biso   1.000  H 
  H49      1.0000 0.47370  0.49920  0.83580  Biso   1.000  H 
  H50      1.0000 0.62480  0.49810  0.86290  Biso   1.000  H 
  N48      1.0000 0.65480  0.14850  0.74780  Biso   1.000  N 
  C55      1.0000 0.90820  0.34750  0.73620  Biso   1.000  C 
  H51      1.0000 0.88810  0.40420  0.69810  Biso   1.000  H 
  H52      1.0000 0.99380  0.31820  0.73020  Biso   1.000  H 
  H53      1.0000 0.90720  0.37730  0.78800  Biso   1.000  H 
  C56      1.0000 0.04980  0.04650  0.34630  Biso   1.000  C 
  H54      1.0000 0.06580  0.08550  0.29950  Biso   1.000  H 
  H55      1.0000 0.12480  0.00190  0.36290  Biso   1.000  H 
  H56      1.0000 0.97370  0.00080  0.33580  Biso   1.000  H 
