data_image0
_cell_length_a       20.0651
_cell_length_b       17.5192
_cell_length_c       16.0176
_cell_angle_alpha    90
_cell_angle_beta     90
_cell_angle_gamma    90

_symmetry_space_group_name_H-M    "P 1"
_symmetry_int_tables_number       1

loop_
  _symmetry_equiv_pos_as_xyz
  'x, y, z'

loop_
  _atom_site_label
  _atom_site_occupancy
  _atom_site_fract_x
  _atom_site_fract_y
  _atom_site_fract_z
  _atom_site_thermal_displace_type
  _atom_site_B_iso_or_equiv
  _atom_site_type_symbol
  Cd1      1.0000 0.69292  0.36179  0.38859  Biso   1.000  Cd
  Cd2      1.0000 0.30708  0.63821  0.38859  Biso   1.000  Cd
  Cd3      1.0000 0.69292  0.63821  0.88859  Biso   1.000  Cd
  Cd4      1.0000 0.30708  0.36179  0.88859  Biso   1.000  Cd
  Cd5      1.0000 0.80802  0.30109  0.58078  Biso   1.000  Cd
  Cd6      1.0000 0.19198  0.69891  0.58078  Biso   1.000  Cd
  Cd7      1.0000 0.80802  0.69891  0.08078  Biso   1.000  Cd
  Cd8      1.0000 0.19198  0.30109  0.08078  Biso   1.000  Cd
  S1       1.0000 0.75626  0.78846  0.32242  Biso   1.000  S 
  S2       1.0000 0.24374  0.21154  0.32242  Biso   1.000  S 
  S3       1.0000 0.75626  0.21154  0.82242  Biso   1.000  S 
  S4       1.0000 0.24374  0.78846  0.82242  Biso   1.000  S 
  S5       1.0000 0.62953  0.93365  0.44477  Biso   1.000  S 
  S6       1.0000 0.37047  0.06635  0.44477  Biso   1.000  S 
  S7       1.0000 0.62953  0.06635  0.94477  Biso   1.000  S 
  S8       1.0000 0.37047  0.93365  0.94477  Biso   1.000  S 
  S9       1.0000 0.72916  0.72726  0.62463  Biso   1.000  S 
  S10      1.0000 0.27084  0.27274  0.62463  Biso   1.000  S 
  S11      1.0000 0.72916  0.27274  0.12463  Biso   1.000  S 
  S12      1.0000 0.27084  0.72726  0.12463  Biso   1.000  S 
  S13      1.0000 0.85740  0.87500  0.50740  Biso   1.000  S 
  S14      1.0000 0.14260  0.12500  0.50740  Biso   1.000  S 
  S15      1.0000 0.85740  0.12500  0.00740  Biso   1.000  S 
  S16      1.0000 0.14260  0.87500  0.00740  Biso   1.000  S 
  O1       1.0000 0.66270  0.36030  0.52220  Biso   1.000  O 
  O2       1.0000 0.33730  0.63970  0.52220  Biso   1.000  O 
  O3       1.0000 0.66270  0.63970  0.02220  Biso   1.000  O 
  O4       1.0000 0.33730  0.36030  0.02220  Biso   1.000  O 
  O5       1.0000 0.70460  0.29800  0.63200  Biso   1.000  O 
  O6       1.0000 0.29540  0.70200  0.63200  Biso   1.000  O 
  O7       1.0000 0.70460  0.70200  0.13200  Biso   1.000  O 
  O8       1.0000 0.29540  0.29800  0.13200  Biso   1.000  O 
  O9       1.0000 0.86190  0.30700  0.71010  Biso   1.000  O 
  O10      1.0000 0.13810  0.69300  0.71010  Biso   1.000  O 
  O11      1.0000 0.86190  0.69300  0.21010  Biso   1.000  O 
  O12      1.0000 0.13810  0.30700  0.21010  Biso   1.000  O 
  O13      1.0000 0.92020  0.28380  0.60240  Biso   1.000  O 
  O14      1.0000 0.07980  0.71620  0.60240  Biso   1.000  O 
  O15      1.0000 0.92020  0.71620  0.10240  Biso   1.000  O 
  O16      1.0000 0.07980  0.28380  0.10240  Biso   1.000  O 
  O17      1.0000 0.35910  0.36280  0.74990  Biso   1.000  O 
  O18      1.0000 0.64090  0.63720  0.74990  Biso   1.000  O 
  O19      1.0000 0.35910  0.63720  0.24990  Biso   1.000  O 
  O20      1.0000 0.64090  0.36280  0.24990  Biso   1.000  O 
  O21      1.0000 0.42280  0.37430  0.86320  Biso   1.000  O 
  O22      1.0000 0.57720  0.62570  0.86320  Biso   1.000  O 
  O23      1.0000 0.42280  0.62570  0.36320  Biso   1.000  O 
  O24      1.0000 0.57720  0.37430  0.36320  Biso   1.000  O 
  O25      1.0000 0.16420  0.30350  0.94260  Biso   1.000  O 
  O26      1.0000 0.83580  0.69650  0.94260  Biso   1.000  O 
  O27      1.0000 0.16420  0.69650  0.44260  Biso   1.000  O 
  O28      1.0000 0.83580  0.30350  0.44260  Biso   1.000  O 
  O29      1.0000 0.20770  0.35730  0.82560  Biso   1.000  O 
  O30      1.0000 0.79230  0.64270  0.82560  Biso   1.000  O 
  O31      1.0000 0.20770  0.64270  0.32560  Biso   1.000  O 
  O32      1.0000 0.79230  0.35730  0.32560  Biso   1.000  O 
  N1       1.0000 0.70560  0.49250  0.39300  Biso   1.000  N 
  N2       1.0000 0.29440  0.50750  0.39300  Biso   1.000  N 
  N3       1.0000 0.70560  0.50750  0.89300  Biso   1.000  N 
  N4       1.0000 0.29440  0.49250  0.89300  Biso   1.000  N 
  N5       1.0000 0.80590  0.43460  0.57910  Biso   1.000  N 
  N6       1.0000 0.19410  0.56540  0.57910  Biso   1.000  N 
  N7       1.0000 0.80590  0.56540  0.07910  Biso   1.000  N 
  N8       1.0000 0.19410  0.43460  0.07910  Biso   1.000  N 
  N9       1.0000 0.68850  0.22740  0.38410  Biso   1.000  N 
  N10      1.0000 0.31150  0.77260  0.38410  Biso   1.000  N 
  N11      1.0000 0.68850  0.77260  0.88410  Biso   1.000  N 
  N12      1.0000 0.31150  0.22740  0.88410  Biso   1.000  N 
  N13      1.0000 0.79590  0.16940  0.56550  Biso   1.000  N 
  N14      1.0000 0.20410  0.83060  0.56550  Biso   1.000  N 
  N15      1.0000 0.79590  0.83060  0.06550  Biso   1.000  N 
  N16      1.0000 0.20410  0.16940  0.06550  Biso   1.000  N 
  N17      1.0000 0.65590  0.77470  0.42530  Biso   1.000  N 
  N18      1.0000 0.34410  0.22530  0.42530  Biso   1.000  N 
  N19      1.0000 0.65590  0.22530  0.92530  Biso   1.000  N 
  N20      1.0000 0.34410  0.77470  0.92530  Biso   1.000  N 
  N21      1.0000 0.73000  0.94430  0.34140  Biso   1.000  N 
  N22      1.0000 0.27000  0.05570  0.34140  Biso   1.000  N 
  N23      1.0000 0.73000  0.05570  0.84140  Biso   1.000  N 
  N24      1.0000 0.27000  0.94430  0.84140  Biso   1.000  N 
  N25      1.0000 0.83430  0.71850  0.52980  Biso   1.000  N 
  N26      1.0000 0.16570  0.28150  0.52980  Biso   1.000  N 
  N27      1.0000 0.83430  0.28150  0.02980  Biso   1.000  N 
  N28      1.0000 0.16570  0.71850  0.02980  Biso   1.000  N 
  N29      1.0000 0.75170  0.88640  0.60260  Biso   1.000  N 
  N30      1.0000 0.24830  0.11360  0.60260  Biso   1.000  N 
  N31      1.0000 0.75170  0.11360  0.10260  Biso   1.000  N 
  N32      1.0000 0.24830  0.88640  0.10260  Biso   1.000  N 
  C1       1.0000 0.65840  0.33210  0.59290  Biso   1.000  C 
  C2       1.0000 0.34160  0.66790  0.59290  Biso   1.000  C 
  C3       1.0000 0.65840  0.66790  0.09290  Biso   1.000  C 
  C4       1.0000 0.34160  0.33210  0.09290  Biso   1.000  C 
  C5       1.0000 0.59470  0.34080  0.64020  Biso   1.000  C 
  C6       1.0000 0.40530  0.65920  0.64020  Biso   1.000  C 
  C7       1.0000 0.59470  0.65920  0.14020  Biso   1.000  C 
  C8       1.0000 0.40530  0.34080  0.14020  Biso   1.000  C 
  C9       1.0000 0.54210  0.37910  0.60540  Biso   1.000  C 
  C10      1.0000 0.45790  0.62090  0.60540  Biso   1.000  C 
  C11      1.0000 0.54210  0.62090  0.10540  Biso   1.000  C 
  C12      1.0000 0.45790  0.37910  0.10540  Biso   1.000  C 
  H1       1.0000 0.54580  0.39790  0.55130  Biso   1.000  H 
  H2       1.0000 0.45420  0.60210  0.55130  Biso   1.000  H 
  H3       1.0000 0.54580  0.60210  0.05130  Biso   1.000  H 
  H4       1.0000 0.45420  0.39790  0.05130  Biso   1.000  H 
  C13      1.0000 0.48310  0.39040  0.64960  Biso   1.000  C 
  C14      1.0000 0.51690  0.60960  0.64960  Biso   1.000  C 
  C15      1.0000 0.48310  0.60960  0.14960  Biso   1.000  C 
  C16      1.0000 0.51690  0.39040  0.14960  Biso   1.000  C 
  C17      1.0000 0.47590  0.35980  0.72970  Biso   1.000  C 
  C18      1.0000 0.52410  0.64020  0.72970  Biso   1.000  C 
  C19      1.0000 0.47590  0.64020  0.22970  Biso   1.000  C 
  C20      1.0000 0.52410  0.35980  0.22970  Biso   1.000  C 
  C21      1.0000 0.53240  0.31880  0.76430  Biso   1.000  C 
  C22      1.0000 0.46760  0.68120  0.76430  Biso   1.000  C 
  C23      1.0000 0.53240  0.68120  0.26430  Biso   1.000  C 
  C24      1.0000 0.46760  0.31880  0.26430  Biso   1.000  C 
  H5       1.0000 0.52900  0.29790  0.81750  Biso   1.000  H 
  H6       1.0000 0.47100  0.70210  0.81750  Biso   1.000  H 
  H7       1.0000 0.52900  0.70210  0.31750  Biso   1.000  H 
  H8       1.0000 0.47100  0.29790  0.31750  Biso   1.000  H 
  C25      1.0000 0.59100  0.31000  0.72060  Biso   1.000  C 
  C26      1.0000 0.40900  0.69000  0.72060  Biso   1.000  C 
  C27      1.0000 0.59100  0.69000  0.22060  Biso   1.000  C 
  C28      1.0000 0.40900  0.31000  0.22060  Biso   1.000  C 
  H9       1.0000 0.62700  0.28430  0.74390  Biso   1.000  H 
  H10      1.0000 0.37300  0.71570  0.74390  Biso   1.000  H 
  H11      1.0000 0.62700  0.71570  0.24390  Biso   1.000  H 
  H12      1.0000 0.37300  0.28430  0.24390  Biso   1.000  H 
  C29      1.0000 0.41600  0.36820  0.78270  Biso   1.000  C 
  C30      1.0000 0.58400  0.63180  0.78270  Biso   1.000  C 
  C31      1.0000 0.41600  0.63180  0.28270  Biso   1.000  C 
  C32      1.0000 0.58400  0.36820  0.28270  Biso   1.000  C 
  C33      1.0000 0.42900  0.43180  0.61530  Biso   1.000  C 
  C34      1.0000 0.57100  0.56820  0.61530  Biso   1.000  C 
  C35      1.0000 0.42900  0.56820  0.11530  Biso   1.000  C 
  C36      1.0000 0.57100  0.43180  0.11530  Biso   1.000  C 
  H13      1.0000 0.40360  0.39910  0.57930  Biso   1.000  H 
  H14      1.0000 0.59640  0.60090  0.57930  Biso   1.000  H 
  H15      1.0000 0.40360  0.60090  0.07930  Biso   1.000  H 
  H16      1.0000 0.59640  0.39910  0.07930  Biso   1.000  H 
  H17      1.0000 0.44570  0.47440  0.58380  Biso   1.000  H 
  H18      1.0000 0.55430  0.52560  0.58380  Biso   1.000  H 
  H19      1.0000 0.44570  0.52560  0.08380  Biso   1.000  H 
  H20      1.0000 0.55430  0.47440  0.08380  Biso   1.000  H 
  H21      1.0000 0.40100  0.45010  0.65960  Biso   1.000  H 
  H22      1.0000 0.59900  0.54990  0.65960  Biso   1.000  H 
  H23      1.0000 0.40100  0.54990  0.15960  Biso   1.000  H 
  H24      1.0000 0.59900  0.45010  0.15960  Biso   1.000  H 
  C37      1.0000 0.91530  0.29720  0.67690  Biso   1.000  C 
  C38      1.0000 0.08470  0.70280  0.67690  Biso   1.000  C 
  C39      1.0000 0.91530  0.70280  0.17690  Biso   1.000  C 
  C40      1.0000 0.08470  0.29720  0.17690  Biso   1.000  C 
  C41      1.0000 0.97950  0.29680  0.72700  Biso   1.000  C 
  C42      1.0000 0.02050  0.70320  0.72700  Biso   1.000  C 
  C43      1.0000 0.97950  0.70320  0.22700  Biso   1.000  C 
  C44      1.0000 0.02050  0.29680  0.22700  Biso   1.000  C 
  C45      1.0000 0.97800  0.29580  0.81310  Biso   1.000  C 
  C46      1.0000 0.02200  0.70420  0.81310  Biso   1.000  C 
  C47      1.0000 0.97800  0.70420  0.31310  Biso   1.000  C 
  C48      1.0000 0.02200  0.29580  0.31310  Biso   1.000  C 
  C49      1.0000 0.03990  0.29980  0.85940  Biso   1.000  C 
  C50      1.0000 0.96010  0.70020  0.85940  Biso   1.000  C 
  C51      1.0000 0.03990  0.70020  0.35940  Biso   1.000  C 
  C52      1.0000 0.96010  0.29980  0.35940  Biso   1.000  C 
  H25      1.0000 0.03930  0.29310  0.91700  Biso   1.000  H 
  H26      1.0000 0.96070  0.70690  0.91700  Biso   1.000  H 
  H27      1.0000 0.03930  0.70690  0.41700  Biso   1.000  H 
  H28      1.0000 0.96070  0.29310  0.41700  Biso   1.000  H 
  C53      1.0000 0.09720  0.31280  0.82120  Biso   1.000  C 
  C54      1.0000 0.90280  0.68720  0.82120  Biso   1.000  C 
  C55      1.0000 0.09720  0.68720  0.32120  Biso   1.000  C 
  C56      1.0000 0.90280  0.31280  0.32120  Biso   1.000  C 
  C57      1.0000 0.09690  0.30770  0.73660  Biso   1.000  C 
  C58      1.0000 0.90310  0.69230  0.73660  Biso   1.000  C 
  C59      1.0000 0.09690  0.69230  0.23660  Biso   1.000  C 
  C60      1.0000 0.90310  0.30770  0.23660  Biso   1.000  C 
  H29      1.0000 0.13730  0.30840  0.70810  Biso   1.000  H 
  H30      1.0000 0.86270  0.69160  0.70810  Biso   1.000  H 
  H31      1.0000 0.13730  0.69160  0.20810  Biso   1.000  H 
  H32      1.0000 0.86270  0.30840  0.20810  Biso   1.000  H 
  C61      1.0000 0.03850  0.30160  0.69140  Biso   1.000  C 
  C62      1.0000 0.96150  0.69840  0.69140  Biso   1.000  C 
  C63      1.0000 0.03850  0.69840  0.19140  Biso   1.000  C 
  C64      1.0000 0.96150  0.30160  0.19140  Biso   1.000  C 
  H33      1.0000 0.04100  0.30070  0.63340  Biso   1.000  H 
  H34      1.0000 0.95900  0.69930  0.63340  Biso   1.000  H 
  H35      1.0000 0.04100  0.69930  0.13340  Biso   1.000  H 
  H36      1.0000 0.95900  0.30070  0.13340  Biso   1.000  H 
  C65      1.0000 0.16140  0.32610  0.86780  Biso   1.000  C 
  C66      1.0000 0.83860  0.67390  0.86780  Biso   1.000  C 
  C67      1.0000 0.16140  0.67390  0.36780  Biso   1.000  C 
  C68      1.0000 0.83860  0.32610  0.36780  Biso   1.000  C 
  C69      1.0000 0.92470  0.27220  0.86960  Biso   1.000  C 
  C70      1.0000 0.07530  0.72780  0.86960  Biso   1.000  C 
  C71      1.0000 0.92470  0.72780  0.36960  Biso   1.000  C 
  C72      1.0000 0.07530  0.27220  0.36960  Biso   1.000  C 
  H37      1.0000 0.88890  0.25040  0.83780  Biso   1.000  H 
  H38      1.0000 0.11110  0.74960  0.83780  Biso   1.000  H 
  H39      1.0000 0.88890  0.74960  0.33780  Biso   1.000  H 
  H40      1.0000 0.11110  0.25040  0.33780  Biso   1.000  H 
  H41      1.0000 0.90870  0.31570  0.89990  Biso   1.000  H 
  H42      1.0000 0.09130  0.68430  0.89990  Biso   1.000  H 
  H43      1.0000 0.90870  0.68430  0.39990  Biso   1.000  H 
  H44      1.0000 0.09130  0.31570  0.39990  Biso   1.000  H 
  H45      1.0000 0.94150  0.23490  0.90810  Biso   1.000  H 
  H46      1.0000 0.05850  0.76510  0.90810  Biso   1.000  H 
  H47      1.0000 0.94150  0.76510  0.40810  Biso   1.000  H 
  H48      1.0000 0.05850  0.23490  0.40810  Biso   1.000  H 
  C73      1.0000 0.75160  0.53110  0.34890  Biso   1.000  C 
  C74      1.0000 0.24840  0.46890  0.34890  Biso   1.000  C 
  C75      1.0000 0.75160  0.46890  0.84890  Biso   1.000  C 
  C76      1.0000 0.24840  0.53110  0.84890  Biso   1.000  C 
  H49      1.0000 0.78450  0.50400  0.32080  Biso   1.000  H 
  H50      1.0000 0.21550  0.49600  0.32080  Biso   1.000  H 
  H51      1.0000 0.78450  0.49600  0.82080  Biso   1.000  H 
  H52      1.0000 0.21550  0.50400  0.82080  Biso   1.000  H 
  C77      1.0000 0.75120  0.60950  0.34430  Biso   1.000  C 
  C78      1.0000 0.24880  0.39050  0.34430  Biso   1.000  C 
  C79      1.0000 0.75120  0.39050  0.84430  Biso   1.000  C 
  C80      1.0000 0.24880  0.60950  0.84430  Biso   1.000  C 
  H53      1.0000 0.78280  0.63420  0.31140  Biso   1.000  H 
  H54      1.0000 0.21720  0.36580  0.31140  Biso   1.000  H 
  H55      1.0000 0.78280  0.36580  0.81140  Biso   1.000  H 
  H56      1.0000 0.21720  0.63420  0.81140  Biso   1.000  H 
  C81      1.0000 0.70430  0.65270  0.38810  Biso   1.000  C 
  C82      1.0000 0.29570  0.34730  0.38810  Biso   1.000  C 
  C83      1.0000 0.70430  0.34730  0.88810  Biso   1.000  C 
  C84      1.0000 0.29570  0.65270  0.88810  Biso   1.000  C 
  C85      1.0000 0.65660  0.61430  0.43190  Biso   1.000  C 
  C86      1.0000 0.34340  0.38570  0.43190  Biso   1.000  C 
  C87      1.0000 0.65660  0.38570  0.93190  Biso   1.000  C 
  C88      1.0000 0.34340  0.61430  0.93190  Biso   1.000  C 
  H57      1.0000 0.62280  0.64050  0.45940  Biso   1.000  H 
  H58      1.0000 0.37720  0.35950  0.45940  Biso   1.000  H 
  H59      1.0000 0.62280  0.35950  0.95940  Biso   1.000  H 
  H60      1.0000 0.37720  0.64050  0.95940  Biso   1.000  H 
  C89      1.0000 0.65970  0.53490  0.43440  Biso   1.000  C 
  C90      1.0000 0.34030  0.46510  0.43440  Biso   1.000  C 
  C91      1.0000 0.65970  0.46510  0.93440  Biso   1.000  C 
  C92      1.0000 0.34030  0.53490  0.93440  Biso   1.000  C 
  H61      1.0000 0.62820  0.50930  0.46650  Biso   1.000  H 
  H62      1.0000 0.37180  0.49070  0.46650  Biso   1.000  H 
  H63      1.0000 0.62820  0.49070  0.96650  Biso   1.000  H 
  H64      1.0000 0.37180  0.50930  0.96650  Biso   1.000  H 
  C93      1.0000 0.70080  0.73600  0.38500  Biso   1.000  C 
  C94      1.0000 0.29920  0.26400  0.38500  Biso   1.000  C 
  C95      1.0000 0.70080  0.26400  0.88500  Biso   1.000  C 
  C96      1.0000 0.29920  0.73600  0.88500  Biso   1.000  C 
  C97      1.0000 0.71700  0.87080  0.35450  Biso   1.000  C 
  C98      1.0000 0.28300  0.12920  0.35450  Biso   1.000  C 
  C99      1.0000 0.71700  0.12920  0.85450  Biso   1.000  C 
  C100     1.0000 0.28300  0.87080  0.85450  Biso   1.000  C 
  C101     1.0000 0.66630  0.85080  0.40870  Biso   1.000  C 
  C102     1.0000 0.33370  0.14920  0.40870  Biso   1.000  C 
  C103     1.0000 0.66630  0.14920  0.90870  Biso   1.000  C 
  C104     1.0000 0.33370  0.85080  0.90870  Biso   1.000  C 
  C105     1.0000 0.68540  0.98560  0.38470  Biso   1.000  C 
  C106     1.0000 0.31460  0.01440  0.38470  Biso   1.000  C 
  C107     1.0000 0.68540  0.01440  0.88470  Biso   1.000  C 
  C108     1.0000 0.31460  0.98560  0.88470  Biso   1.000  C 
  C109     1.0000 0.68380  0.06970  0.38370  Biso   1.000  C 
  C110     1.0000 0.31620  0.93030  0.38370  Biso   1.000  C 
  C111     1.0000 0.68380  0.93030  0.88370  Biso   1.000  C 
  C112     1.0000 0.31620  0.06970  0.88370  Biso   1.000  C 
  C113     1.0000 0.72720  0.10790  0.32980  Biso   1.000  C 
  C114     1.0000 0.27280  0.89210  0.32980  Biso   1.000  C 
  C115     1.0000 0.72720  0.89210  0.82980  Biso   1.000  C 
  C116     1.0000 0.27280  0.10790  0.82980  Biso   1.000  C 
  H65      1.0000 0.75540  0.08170  0.29380  Biso   1.000  H 
  H66      1.0000 0.24460  0.91830  0.29380  Biso   1.000  H 
  H67      1.0000 0.75540  0.91830  0.79380  Biso   1.000  H 
  H68      1.0000 0.24460  0.08170  0.79380  Biso   1.000  H 
  C117     1.0000 0.72610  0.18890  0.33300  Biso   1.000  C 
  C118     1.0000 0.27390  0.81110  0.33300  Biso   1.000  C 
  C119     1.0000 0.72610  0.81110  0.83300  Biso   1.000  C 
  C120     1.0000 0.27390  0.18890  0.83300  Biso   1.000  C 
  H69      1.0000 0.75360  0.21580  0.29660  Biso   1.000  H 
  H70      1.0000 0.24640  0.78420  0.29660  Biso   1.000  H 
  H71      1.0000 0.75360  0.78420  0.79660  Biso   1.000  H 
  H72      1.0000 0.24640  0.21580  0.79660  Biso   1.000  H 
  C121     1.0000 0.64880  0.18840  0.43180  Biso   1.000  C 
  C122     1.0000 0.35120  0.81160  0.43180  Biso   1.000  C 
  C123     1.0000 0.64880  0.81160  0.93180  Biso   1.000  C 
  C124     1.0000 0.35120  0.18840  0.93180  Biso   1.000  C 
  H73      1.0000 0.62100  0.21600  0.46710  Biso   1.000  H 
  H74      1.0000 0.37900  0.78400  0.46710  Biso   1.000  H 
  H75      1.0000 0.62100  0.78400  0.96710  Biso   1.000  H 
  H76      1.0000 0.37900  0.21600  0.96710  Biso   1.000  H 
  C125     1.0000 0.64380  0.10950  0.43520  Biso   1.000  C 
  C126     1.0000 0.35620  0.89050  0.43520  Biso   1.000  C 
  C127     1.0000 0.64380  0.89050  0.93520  Biso   1.000  C 
  C128     1.0000 0.35620  0.10950  0.93520  Biso   1.000  C 
  H77      1.0000 0.61430  0.08530  0.47130  Biso   1.000  H 
  H78      1.0000 0.38570  0.91470  0.47130  Biso   1.000  H 
  H79      1.0000 0.61430  0.91470  0.97130  Biso   1.000  H 
  H80      1.0000 0.38570  0.08530  0.97130  Biso   1.000  H 
  C129     1.0000 0.76260  0.47240  0.62670  Biso   1.000  C 
  C130     1.0000 0.23740  0.52760  0.62670  Biso   1.000  C 
  C131     1.0000 0.76260  0.52760  0.12670  Biso   1.000  C 
  C132     1.0000 0.23740  0.47240  0.12670  Biso   1.000  C 
  H81      1.0000 0.73550  0.44440  0.66240  Biso   1.000  H 
  H82      1.0000 0.26450  0.55560  0.66240  Biso   1.000  H 
  H83      1.0000 0.73550  0.55560  0.16240  Biso   1.000  H 
  H84      1.0000 0.26450  0.44440  0.16240  Biso   1.000  H 
  C133     1.0000 0.75590  0.54960  0.62590  Biso   1.000  C 
  C134     1.0000 0.24410  0.45040  0.62590  Biso   1.000  C 
  C135     1.0000 0.75590  0.45040  0.12590  Biso   1.000  C 
  C136     1.0000 0.24410  0.54960  0.12590  Biso   1.000  C 
  H85      1.0000 0.72350  0.57300  0.65870  Biso   1.000  H 
  H86      1.0000 0.27650  0.42700  0.65870  Biso   1.000  H 
  H87      1.0000 0.72350  0.42700  0.15870  Biso   1.000  H 
  H88      1.0000 0.27650  0.57300  0.15870  Biso   1.000  H 
  C137     1.0000 0.79640  0.59230  0.57720  Biso   1.000  C 
  C138     1.0000 0.20360  0.40770  0.57720  Biso   1.000  C 
  C139     1.0000 0.79640  0.40770  0.07720  Biso   1.000  C 
  C140     1.0000 0.20360  0.59230  0.07720  Biso   1.000  C 
  C141     1.0000 0.84120  0.55470  0.52440  Biso   1.000  C 
  C142     1.0000 0.15880  0.44530  0.52440  Biso   1.000  C 
  C143     1.0000 0.84120  0.44530  0.02440  Biso   1.000  C 
  C144     1.0000 0.15880  0.55470  0.02440  Biso   1.000  C 
  H89      1.0000 0.86810  0.58230  0.48800  Biso   1.000  H 
  H90      1.0000 0.13190  0.41770  0.48800  Biso   1.000  H 
  H91      1.0000 0.86810  0.41770  0.98800  Biso   1.000  H 
  H92      1.0000 0.13190  0.58230  0.98800  Biso   1.000  H 
  C145     1.0000 0.84510  0.47470  0.52700  Biso   1.000  C 
  C146     1.0000 0.15490  0.52530  0.52700  Biso   1.000  C 
  C147     1.0000 0.84510  0.52530  0.02700  Biso   1.000  C 
  C148     1.0000 0.15490  0.47470  0.02700  Biso   1.000  C 
  H93      1.0000 0.87510  0.44930  0.49250  Biso   1.000  H 
  H94      1.0000 0.12490  0.55070  0.49250  Biso   1.000  H 
  H95      1.0000 0.87510  0.55070  0.99250  Biso   1.000  H 
  H96      1.0000 0.12490  0.44930  0.99250  Biso   1.000  H 
  C149     1.0000 0.79230  0.67680  0.57270  Biso   1.000  C 
  C150     1.0000 0.20770  0.32320  0.57270  Biso   1.000  C 
  C151     1.0000 0.79230  0.32320  0.07270  Biso   1.000  C 
  C152     1.0000 0.20770  0.67680  0.07270  Biso   1.000  C 
  C153     1.0000 0.76660  0.80980  0.59050  Biso   1.000  C 
  C154     1.0000 0.23340  0.19020  0.59050  Biso   1.000  C 
  C155     1.0000 0.76660  0.19020  0.09050  Biso   1.000  C 
  C156     1.0000 0.23340  0.80980  0.09050  Biso   1.000  C 
  C157     1.0000 0.82140  0.79320  0.54100  Biso   1.000  C 
  C158     1.0000 0.17860  0.20680  0.54100  Biso   1.000  C 
  C159     1.0000 0.82140  0.20680  0.04100  Biso   1.000  C 
  C160     1.0000 0.17860  0.79320  0.04100  Biso   1.000  C 
  C161     1.0000 0.79510  0.92680  0.56480  Biso   1.000  C 
  C162     1.0000 0.20490  0.07320  0.56480  Biso   1.000  C 
  C163     1.0000 0.79510  0.07320  0.06480  Biso   1.000  C 
  C164     1.0000 0.20490  0.92680  0.06480  Biso   1.000  C 
  C165     1.0000 0.79650  0.01030  0.56410  Biso   1.000  C 
  C166     1.0000 0.20350  0.98970  0.56410  Biso   1.000  C 
  C167     1.0000 0.79650  0.98970  0.06410  Biso   1.000  C 
  C168     1.0000 0.20350  0.01030  0.06410  Biso   1.000  C 
  C169     1.0000 0.74850  0.04920  0.60610  Biso   1.000  C 
  C170     1.0000 0.25150  0.95080  0.60610  Biso   1.000  C 
  C171     1.0000 0.74850  0.95080  0.10610  Biso   1.000  C 
  C172     1.0000 0.25150  0.04920  0.10610  Biso   1.000  C 
  H97      1.0000 0.71520  0.02360  0.63520  Biso   1.000  H 
  H98      1.0000 0.28480  0.97640  0.63520  Biso   1.000  H 
  H99      1.0000 0.71520  0.97640  0.13520  Biso   1.000  H 
  H100     1.0000 0.28480  0.02360  0.13520  Biso   1.000  H 
  C173     1.0000 0.75060  0.12910  0.60430  Biso   1.000  C 
  C174     1.0000 0.24940  0.87090  0.60430  Biso   1.000  C 
  C175     1.0000 0.75060  0.87090  0.10430  Biso   1.000  C 
  C176     1.0000 0.24940  0.12910  0.10430  Biso   1.000  C 
  H101     1.0000 0.71730  0.15540  0.63270  Biso   1.000  H 
  H102     1.0000 0.28270  0.84460  0.63270  Biso   1.000  H 
  H103     1.0000 0.71730  0.84460  0.13270  Biso   1.000  H 
  H104     1.0000 0.28270  0.15540  0.13270  Biso   1.000  H 
  C177     1.0000 0.84360  0.13100  0.52070  Biso   1.000  C 
  C178     1.0000 0.15640  0.86900  0.52070  Biso   1.000  C 
  C179     1.0000 0.84360  0.86900  0.02070  Biso   1.000  C 
  C180     1.0000 0.15640  0.13100  0.02070  Biso   1.000  C 
  H105     1.0000 0.87610  0.15830  0.49190  Biso   1.000  H 
  H106     1.0000 0.12390  0.84170  0.49190  Biso   1.000  H 
  H107     1.0000 0.87610  0.84170  0.99190  Biso   1.000  H 
  H108     1.0000 0.12390  0.15830  0.99190  Biso   1.000  H 
  C181     1.0000 0.84380  0.05180  0.51810  Biso   1.000  C 
  C182     1.0000 0.15620  0.94820  0.51810  Biso   1.000  C 
  C183     1.0000 0.84380  0.94820  0.01810  Biso   1.000  C 
  C184     1.0000 0.15620  0.05180  0.01810  Biso   1.000  C 
  H109     1.0000 0.87530  0.02620  0.48600  Biso   1.000  H 
  H110     1.0000 0.12470  0.97380  0.48600  Biso   1.000  H 
  H111     1.0000 0.87530  0.97380  0.98600  Biso   1.000  H 
  H112     1.0000 0.12470  0.02620  0.98600  Biso   1.000  H 
