data_image0
_cell_length_a       7.7143
_cell_length_b       13.911
_cell_length_c       19.823
_cell_angle_alpha    89.622
_cell_angle_beta     83.444
_cell_angle_gamma    76.99

_symmetry_space_group_name_H-M    "P 1"
_symmetry_int_tables_number       1

loop_
  _symmetry_equiv_pos_as_xyz
  'x, y, z'

loop_
  _atom_site_label
  _atom_site_occupancy
  _atom_site_fract_x
  _atom_site_fract_y
  _atom_site_fract_z
  _atom_site_thermal_displace_type
  _atom_site_B_iso_or_equiv
  _atom_site_type_symbol
  Mn1      1.0000 0.20233  0.39688  0.04323  Biso   1.000  Mn
  O1       1.0000 0.46050  0.32021  0.08526  Biso   1.000  O 
  C1       1.0000 0.43770  0.23870  0.06706  Biso   1.000  C 
  O2       1.0000 0.29830  0.23065  0.04263  Biso   1.000  O 
  C2       1.0000 0.58000  0.14700  0.07171  Biso   1.000  C 
  H1       1.0000 0.55860  0.08580  0.05810  Biso   1.000  H 
  C3       1.0000 0.73320  0.14790  0.09378  Biso   1.000  C 
  H2       1.0000 0.74490  0.20980  0.11030  Biso   1.000  H 
  C4       1.0000 0.88850  0.06610  0.09630  Biso   1.000  C 
  C5       1.0000 0.04540  0.08460  0.11650  Biso   1.000  C 
  H3       1.0000 0.04740  0.14970  0.13000  Biso   1.000  H 
  C6       1.0000 0.19640  0.01120  0.11730  Biso   1.000  C 
  H4       1.0000 0.30140  0.02570  0.13150  Biso   1.000  H 
  C7       1.0000 0.19700  0.91630  0.09760  Biso   1.000  C 
  H5       1.0000 0.30210  0.86550  0.09830  Biso   1.000  H 
  C8       1.0000 0.04230  0.89510  0.07650  Biso   1.000  C 
  C9       1.0000 0.04030  0.79630  0.05219  Biso   1.000  C 
  C10      1.0000 0.15110  0.71290  0.06470  Biso   1.000  C 
  H6       1.0000 0.24340  0.71450  0.09220  Biso   1.000  H 
  C11      1.0000 0.13630  0.61670  0.03726  Biso   1.000  C 
  O3       1.0000 0.22930  0.54117  0.06079  Biso   1.000  O 
  O4       1.0000 0.03540  0.61631  0.99208  Biso   1.000  O 
  Mn2      1.0000 0.79767  0.60312  0.95677  Biso   1.000  Mn
  O5       1.0000 0.77070  0.45883  0.93921  Biso   1.000  O 
  C12      1.0000 0.86370  0.38330  0.96274  Biso   1.000  C 
  O6       1.0000 0.96460  0.38369  0.00792  Biso   1.000  O 
  C13      1.0000 0.84890  0.28710  0.93530  Biso   1.000  C 
  H7       1.0000 0.75660  0.28550  0.90780  Biso   1.000  H 
  C14      1.0000 0.95970  0.20370  0.94781  Biso   1.000  C 
  H8       1.0000 0.05040  0.20810  0.97550  Biso   1.000  H 
  C15      1.0000 0.95770  0.10490  0.92350  Biso   1.000  C 
  C16      1.0000 0.80300  0.08370  0.90240  Biso   1.000  C 
  H9       1.0000 0.69790  0.13450  0.90170  Biso   1.000  H 
  C17      1.0000 0.80360  0.98880  0.88270  Biso   1.000  C 
  H10      1.0000 0.69860  0.97430  0.86850  Biso   1.000  H 
  C18      1.0000 0.95460  0.91540  0.88350  Biso   1.000  C 
  H11      1.0000 0.95260  0.85030  0.87000  Biso   1.000  H 
  C19      1.0000 0.11150  0.93390  0.90370  Biso   1.000  C 
  C20      1.0000 0.26680  0.85210  0.90622  Biso   1.000  C 
  C21      1.0000 0.42000  0.85300  0.92829  Biso   1.000  C 
  C22      1.0000 0.56230  0.76130  0.93294  Biso   1.000  C 
  O7       1.0000 0.53950  0.67979  0.91474  Biso   1.000  O 
  O8       1.0000 0.70170  0.76935  0.95737  Biso   1.000  O 
  H12      1.0000 0.44140  0.91420  0.94190  Biso   1.000  H 
  H13      1.0000 0.25510  0.79020  0.88970  Biso   1.000  H 
  C23      1.0000 0.10820  0.03050  0.92384  Biso   1.000  C 
  H14      1.0000 0.21310  0.04500  0.93810  Biso   1.000  H 
  N1       1.0000 0.95800  0.57610  0.84890  Biso   1.000  N 
  C24      1.0000 0.93000  0.51440  0.80250  Biso   1.000  C 
  H15      1.0000 0.85750  0.46930  0.81680  Biso   1.000  H 
  C25      1.0000 0.99800  0.51150  0.73530  Biso   1.000  C 
  H16      1.0000 0.97270  0.46500  0.70500  Biso   1.000  H 
  C26      1.0000 0.10120  0.57520  0.71160  Biso   1.000  C 
  C27      1.0000 0.17310  0.57350  0.64040  Biso   1.000  C 
  H17      1.0000 0.15380  0.52200  0.61290  Biso   1.000  H 
  C28      1.0000 0.26130  0.63480  0.60960  Biso   1.000  C 
  C29      1.0000 0.32080  0.63320  0.53730  Biso   1.000  C 
  C30      1.0000 0.29310  0.56830  0.49100  Biso   1.000  C 
  H18      1.0000 0.22960  0.51950  0.50580  Biso   1.000  H 
  C31      1.0000 0.35500  0.57160  0.42240  Biso   1.000  C 
  H19      1.0000 0.34080  0.52160  0.39260  Biso   1.000  H 
  C32      1.0000 0.43500  0.64250  0.39660  Biso   1.000  C 
  C33      1.0000 0.50000  0.64970  0.32520  Biso   1.000  C 
  C34      1.0000 0.48900  0.59500  0.27470  Biso   1.000  C 
  C35      1.0000 0.54800  0.60590  0.20260  Biso   1.000  C 
  C36      1.0000 0.54600  0.53070  0.15650  Biso   1.000  C 
  H20      1.0000 0.49820  0.47590  0.17100  Biso   1.000  H 
  C37      1.0000 0.61600  0.53700  0.08910  Biso   1.000  C 
  H21      1.0000 0.62760  0.48110  0.06030  Biso   1.000  H 
  N2       1.0000 0.66700  0.61420  0.06210  Biso   1.000  N 
  C38      1.0000 0.66200  0.68720  0.10720  Biso   1.000  C 
  H22      1.0000 0.70200  0.74360  0.09040  Biso   1.000  H 
  C39      1.0000 0.60300  0.68680  0.17590  Biso   1.000  C 
  H23      1.0000 0.60180  0.74190  0.20430  Biso   1.000  H 
  H24      1.0000 0.43590  0.54060  0.28530  Biso   1.000  H 
  H25      1.0000 0.55850  0.70200  0.31460  Biso   1.000  H 
  C40      1.0000 0.46300  0.71120  0.44320  Biso   1.000  C 
  H26      1.0000 0.52380  0.76090  0.42770  Biso   1.000  H 
  C41      1.0000 0.40350  0.70780  0.51120  Biso   1.000  C 
  H27      1.0000 0.41890  0.75740  0.54130  Biso   1.000  H 
  H28      1.0000 0.28840  0.68410  0.63690  Biso   1.000  H 
  C42      1.0000 0.13720  0.63840  0.75980  Biso   1.000  C 
  H29      1.0000 0.21540  0.68110  0.74730  Biso   1.000  H 
  C43      1.0000 0.05800  0.63840  0.82570  Biso   1.000  C 
  H30      1.0000 0.07630  0.68600  0.85670  Biso   1.000  H 
  H31      1.0000 0.94960  0.79190  0.02450  Biso   1.000  H 
  C44      1.0000 0.89180  0.96950  0.07616  Biso   1.000  C 
  H32      1.0000 0.78690  0.95500  0.06190  Biso   1.000  H 
  N3       1.0000 0.04200  0.42390  0.15110  Biso   1.000  N 
  C45      1.0000 0.07000  0.48560  0.19750  Biso   1.000  C 
  H33      1.0000 0.14250  0.53070  0.18320  Biso   1.000  H 
  C46      1.0000 0.00200  0.48850  0.26470  Biso   1.000  C 
  H34      1.0000 0.02730  0.53500  0.29500  Biso   1.000  H 
  C47      1.0000 0.89880  0.42480  0.28840  Biso   1.000  C 
  C48      1.0000 0.86280  0.36160  0.24020  Biso   1.000  C 
  C49      1.0000 0.94200  0.36160  0.17430  Biso   1.000  C 
  H35      1.0000 0.92370  0.31400  0.14330  Biso   1.000  H 
  H36      1.0000 0.78460  0.31890  0.25270  Biso   1.000  H 
  C50      1.0000 0.82690  0.42650  0.35960  Biso   1.000  C 
  C51      1.0000 0.73870  0.36520  0.39040  Biso   1.000  C 
  H37      1.0000 0.71160  0.31590  0.36310  Biso   1.000  H 
  C52      1.0000 0.67920  0.36680  0.46270  Biso   1.000  C 
  C53      1.0000 0.59650  0.29220  0.48880  Biso   1.000  C 
  H38      1.0000 0.58110  0.24260  0.45870  Biso   1.000  H 
  C54      1.0000 0.53700  0.28880  0.55680  Biso   1.000  C 
  H39      1.0000 0.47620  0.23910  0.57230  Biso   1.000  H 
  C55      1.0000 0.56500  0.35750  0.60340  Biso   1.000  C 
  C56      1.0000 0.50000  0.35030  0.67480  Biso   1.000  C 
  C57      1.0000 0.51100  0.40500  0.72530  Biso   1.000  C 
  H40      1.0000 0.56410  0.45940  0.71470  Biso   1.000  H 
  C58      1.0000 0.45200  0.39410  0.79740  Biso   1.000  C 
  C59      1.0000 0.39700  0.31320  0.82410  Biso   1.000  C 
  H41      1.0000 0.39820  0.25810  0.79570  Biso   1.000  H 
  C60      1.0000 0.33800  0.31280  0.89280  Biso   1.000  C 
  H42      1.0000 0.29800  0.25640  0.90960  Biso   1.000  H 
  N4       1.0000 0.33300  0.38580  0.93790  Biso   1.000  N 
  C61      1.0000 0.38400  0.46300  0.91090  Biso   1.000  C 
  H43      1.0000 0.37240  0.51890  0.93970  Biso   1.000  H 
  C62      1.0000 0.45400  0.46930  0.84350  Biso   1.000  C 
  H44      1.0000 0.50180  0.52410  0.82900  Biso   1.000  H 
  H45      1.0000 0.44150  0.29800  0.68540  Biso   1.000  H 
  C63      1.0000 0.64500  0.42840  0.57760  Biso   1.000  C 
  H46      1.0000 0.65920  0.47840  0.60740  Biso   1.000  H 
  C64      1.0000 0.70690  0.43170  0.50900  Biso   1.000  C 
  H47      1.0000 0.77040  0.48050  0.49420  Biso   1.000  H 
  H48      1.0000 0.84620  0.47800  0.38710  Biso   1.000  H 
