data_image0
_cell_length_a       10.85
_cell_length_b       23.92
_cell_length_c       12.13
_cell_angle_alpha    90
_cell_angle_beta     113.36
_cell_angle_gamma    90

_symmetry_space_group_name_H-M    "P 1"
_symmetry_int_tables_number       1

loop_
  _symmetry_equiv_pos_as_xyz
  'x, y, z'

loop_
  _atom_site_label
  _atom_site_occupancy
  _atom_site_fract_x
  _atom_site_fract_y
  _atom_site_fract_z
  _atom_site_thermal_displace_type
  _atom_site_B_iso_or_equiv
  _atom_site_type_symbol
  N1       1.0000 0.90300  0.26050  0.53860  Biso   1.000  N 
  N2       1.0000 0.09700  0.76050  0.96140  Biso   1.000  N 
  N3       1.0000 0.09700  0.73950  0.46140  Biso   1.000  N 
  N4       1.0000 0.90300  0.23950  0.03860  Biso   1.000  N 
  C1       1.0000 0.00300  0.24280  0.59600  Biso   1.000  C 
  C2       1.0000 0.99700  0.74280  0.90400  Biso   1.000  C 
  C3       1.0000 0.99700  0.75720  0.40400  Biso   1.000  C 
  C4       1.0000 0.00300  0.25720  0.09600  Biso   1.000  C 
  C5       1.0000 0.12900  0.21240  0.67200  Biso   1.000  C 
  C6       1.0000 0.87100  0.71240  0.82800  Biso   1.000  C 
  C7       1.0000 0.87100  0.78760  0.32800  Biso   1.000  C 
  C8       1.0000 0.12900  0.28760  0.17200  Biso   1.000  C 
  H1       1.0000 0.12340  0.19980  0.74660  Biso   1.000  H 
  H2       1.0000 0.87660  0.69980  0.75340  Biso   1.000  H 
  H3       1.0000 0.87660  0.80020  0.25340  Biso   1.000  H 
  H4       1.0000 0.12340  0.30020  0.24660  Biso   1.000  H 
  H5       1.0000 0.20620  0.23760  0.69100  Biso   1.000  H 
  H6       1.0000 0.79380  0.73760  0.80900  Biso   1.000  H 
  H7       1.0000 0.79380  0.76240  0.30900  Biso   1.000  H 
  H8       1.0000 0.20620  0.26240  0.19100  Biso   1.000  H 
  H9       1.0000 0.14090  0.18000  0.62770  Biso   1.000  H 
  H10      1.0000 0.85910  0.68000  0.87230  Biso   1.000  H 
  H11      1.0000 0.85910  0.82000  0.37230  Biso   1.000  H 
  H12      1.0000 0.14090  0.32000  0.12770  Biso   1.000  H 
  Tb1      1.0000 0.28059  0.05649  0.05007  Biso   1.000  Tb
  Tb2      1.0000 0.71941  0.55649  0.44993  Biso   1.000  Tb
  Tb3      1.0000 0.71941  0.94351  0.94993  Biso   1.000  Tb
  Tb4      1.0000 0.28059  0.44351  0.55007  Biso   1.000  Tb
  Mn1      1.0000 0.00850  0.01626  0.12790  Biso   1.000  Mn
  Mn2      1.0000 0.99150  0.51626  0.37210  Biso   1.000  Mn
  Mn3      1.0000 0.99150  0.98374  0.87210  Biso   1.000  Mn
  Mn4      1.0000 0.00850  0.48374  0.62790  Biso   1.000  Mn
  S1       1.0000 0.57710  0.96512  0.18452  Biso   1.000  S 
  S2       1.0000 0.42290  0.46512  0.31548  Biso   1.000  S 
  S3       1.0000 0.42290  0.03488  0.81548  Biso   1.000  S 
  S4       1.0000 0.57710  0.53488  0.68452  Biso   1.000  S 
  O1       1.0000 0.81800  0.02240  0.06850  Biso   1.000  O 
  O2       1.0000 0.18200  0.52240  0.43150  Biso   1.000  O 
  O3       1.0000 0.18200  0.97760  0.93150  Biso   1.000  O 
  O4       1.0000 0.81800  0.47760  0.56850  Biso   1.000  O 
  O5       1.0000 0.20070  0.01420  0.18450  Biso   1.000  O 
  O6       1.0000 0.79930  0.51420  0.31550  Biso   1.000  O 
  O7       1.0000 0.79930  0.98580  0.81550  Biso   1.000  O 
  O8       1.0000 0.20070  0.48580  0.68450  Biso   1.000  O 
  O9       1.0000 0.03300  0.05770  0.97300  Biso   1.000  O 
  O10      1.0000 0.96700  0.55770  0.52700  Biso   1.000  O 
  O11      1.0000 0.96700  0.94230  0.02700  Biso   1.000  O 
  O12      1.0000 0.03300  0.44230  0.47300  Biso   1.000  O 
  O13      1.0000 0.20310  0.15020  0.09100  Biso   1.000  O 
  O14      1.0000 0.79690  0.65020  0.40900  Biso   1.000  O 
  O15      1.0000 0.79690  0.84980  0.90900  Biso   1.000  O 
  O16      1.0000 0.20310  0.34980  0.59100  Biso   1.000  O 
  O17      1.0000 0.20120  0.13500  0.91000  Biso   1.000  O 
  O18      1.0000 0.79880  0.63500  0.59000  Biso   1.000  O 
  O19      1.0000 0.79880  0.86500  0.09000  Biso   1.000  O 
  O20      1.0000 0.20120  0.36500  0.41000  Biso   1.000  O 
  O21      1.0000 0.15330  0.21830  0.96020  Biso   1.000  O 
  O22      1.0000 0.84670  0.71830  0.53980  Biso   1.000  O 
  O23      1.0000 0.84670  0.78170  0.03980  Biso   1.000  O 
  O24      1.0000 0.15330  0.28170  0.46020  Biso   1.000  O 
  O25      1.0000 0.41470  0.09030  0.25960  Biso   1.000  O 
  O26      1.0000 0.58530  0.59030  0.24040  Biso   1.000  O 
  O27      1.0000 0.58530  0.90970  0.74040  Biso   1.000  O 
  O28      1.0000 0.41470  0.40970  0.75960  Biso   1.000  O 
  O29      1.0000 0.47530  0.12100  0.12120  Biso   1.000  O 
  O30      1.0000 0.52470  0.62100  0.37880  Biso   1.000  O 
  O31      1.0000 0.52470  0.87900  0.87880  Biso   1.000  O 
  O32      1.0000 0.47530  0.37900  0.62120  Biso   1.000  O 
  O33      1.0000 0.56890  0.15530  0.30260  Biso   1.000  O 
  O34      1.0000 0.43110  0.65530  0.19740  Biso   1.000  O 
  O35      1.0000 0.43110  0.84470  0.69740  Biso   1.000  O 
  O36      1.0000 0.56890  0.34470  0.80260  Biso   1.000  O 
  O37      1.0000 0.43950  0.98630  0.13040  Biso   1.000  O 
  O38      1.0000 0.56050  0.48630  0.36960  Biso   1.000  O 
  O39      1.0000 0.56050  0.01370  0.86960  Biso   1.000  O 
  O40      1.0000 0.43950  0.51370  0.63040  Biso   1.000  O 
  O41      1.0000 0.66680  0.00420  0.26730  Biso   1.000  O 
  O42      1.0000 0.33320  0.50420  0.23270  Biso   1.000  O 
  O43      1.0000 0.33320  0.99580  0.73270  Biso   1.000  O 
  O44      1.0000 0.66680  0.49580  0.76730  Biso   1.000  O 
  O45      1.0000 0.62140  0.94490  0.09350  Biso   1.000  O 
  O46      1.0000 0.37860  0.44490  0.40650  Biso   1.000  O 
  O47      1.0000 0.37860  0.05510  0.90650  Biso   1.000  O 
  O48      1.0000 0.62140  0.55510  0.59350  Biso   1.000  O 
  N5       1.0000 0.99550  0.09150  0.20520  Biso   1.000  N 
  N6       1.0000 0.00450  0.59150  0.29480  Biso   1.000  N 
  N7       1.0000 0.00450  0.90850  0.79480  Biso   1.000  N 
  N8       1.0000 0.99550  0.40850  0.70520  Biso   1.000  N 
  N9       1.0000 0.06140  0.97260  0.29960  Biso   1.000  N 
  N10      1.0000 0.93860  0.47260  0.20040  Biso   1.000  N 
  N11      1.0000 0.93860  0.02740  0.70040  Biso   1.000  N 
  N12      1.0000 0.06140  0.52740  0.79960  Biso   1.000  N 
  N13      1.0000 0.18630  0.16860  0.98630  Biso   1.000  N 
  N14      1.0000 0.81370  0.66860  0.51370  Biso   1.000  N 
  N15      1.0000 0.81370  0.83140  0.01370  Biso   1.000  N 
  N16      1.0000 0.18630  0.33140  0.48630  Biso   1.000  N 
  N17      1.0000 0.48860  0.12380  0.23090  Biso   1.000  N 
  N18      1.0000 0.51140  0.62380  0.26910  Biso   1.000  N 
  N19      1.0000 0.51140  0.87620  0.76910  Biso   1.000  N 
  N20      1.0000 0.48860  0.37620  0.73090  Biso   1.000  N 
  C9       1.0000 0.76230  0.07410  0.08100  Biso   1.000  C 
  C10      1.0000 0.23770  0.57410  0.41900  Biso   1.000  C 
  C11      1.0000 0.23770  0.92590  0.91900  Biso   1.000  C 
  C12      1.0000 0.76230  0.42590  0.58100  Biso   1.000  C 
  H13      1.0000 0.68640  0.06770  0.10520  Biso   1.000  H 
  H14      1.0000 0.31360  0.56770  0.39480  Biso   1.000  H 
  H15      1.0000 0.31360  0.93230  0.89480  Biso   1.000  H 
  H16      1.0000 0.68640  0.43230  0.60520  Biso   1.000  H 
  H17      1.0000 0.72780  0.09420  0.00320  Biso   1.000  H 
  H18      1.0000 0.27220  0.59420  0.49680  Biso   1.000  H 
  H19      1.0000 0.27220  0.90580  0.99680  Biso   1.000  H 
  H20      1.0000 0.72780  0.40580  0.50320  Biso   1.000  H 
  C13      1.0000 0.86890  0.10910  0.17510  Biso   1.000  C 
  C14      1.0000 0.13110  0.60910  0.32490  Biso   1.000  C 
  C15      1.0000 0.13110  0.89090  0.82490  Biso   1.000  C 
  C16      1.0000 0.86890  0.39090  0.67510  Biso   1.000  C 
  C17      1.0000 0.84310  0.15600  0.22900  Biso   1.000  C 
  C18      1.0000 0.15690  0.65600  0.27100  Biso   1.000  C 
  C19      1.0000 0.15690  0.84400  0.77100  Biso   1.000  C 
  C20      1.0000 0.84310  0.34400  0.72900  Biso   1.000  C 
  H21      1.0000 0.75350  0.16820  0.20930  Biso   1.000  H 
  H22      1.0000 0.24650  0.66820  0.29070  Biso   1.000  H 
  H23      1.0000 0.24650  0.83180  0.79070  Biso   1.000  H 
  H24      1.0000 0.75350  0.33180  0.70930  Biso   1.000  H 
  C21      1.0000 0.95090  0.18510  0.31290  Biso   1.000  C 
  C22      1.0000 0.04910  0.68510  0.18710  Biso   1.000  C 
  C23      1.0000 0.04910  0.81490  0.68710  Biso   1.000  C 
  C24      1.0000 0.95090  0.31490  0.81290  Biso   1.000  C 
  H25      1.0000 0.93560  0.21770  0.35060  Biso   1.000  H 
  H26      1.0000 0.06440  0.71770  0.14940  Biso   1.000  H 
  H27      1.0000 0.06440  0.78230  0.64940  Biso   1.000  H 
  H28      1.0000 0.93560  0.28230  0.85060  Biso   1.000  H 
  C25      1.0000 0.07930  0.16640  0.34060  Biso   1.000  C 
  C26      1.0000 0.92070  0.66640  0.15940  Biso   1.000  C 
  C27      1.0000 0.92070  0.83360  0.65940  Biso   1.000  C 
  C28      1.0000 0.07930  0.33360  0.84060  Biso   1.000  C 
  H29      1.0000 0.15380  0.18580  0.39750  Biso   1.000  H 
  H30      1.0000 0.84620  0.68580  0.10250  Biso   1.000  H 
  H31      1.0000 0.84620  0.81420  0.60250  Biso   1.000  H 
  H32      1.0000 0.15380  0.31420  0.89750  Biso   1.000  H 
  C29      1.0000 0.09840  0.11940  0.28500  Biso   1.000  C 
  C30      1.0000 0.90160  0.61940  0.21500  Biso   1.000  C 
  C31      1.0000 0.90160  0.88060  0.71500  Biso   1.000  C 
  C32      1.0000 0.09840  0.38060  0.78500  Biso   1.000  C 
  H33      1.0000 0.18720  0.10640  0.30370  Biso   1.000  H 
  H34      1.0000 0.81280  0.60640  0.19630  Biso   1.000  H 
  H35      1.0000 0.81280  0.89360  0.69630  Biso   1.000  H 
  H36      1.0000 0.18720  0.39360  0.80370  Biso   1.000  H 
  C33      1.0000 0.27680  0.98350  0.28800  Biso   1.000  C 
  C34      1.0000 0.72320  0.48350  0.21200  Biso   1.000  C 
  C35      1.0000 0.72320  0.01650  0.71200  Biso   1.000  C 
  C36      1.0000 0.27680  0.51650  0.78800  Biso   1.000  C 
  H37      1.0000 0.35160  0.00710  0.34150  Biso   1.000  H 
  H38      1.0000 0.64840  0.50710  0.15850  Biso   1.000  H 
  H39      1.0000 0.64840  0.99290  0.65850  Biso   1.000  H 
  H40      1.0000 0.35160  0.49290  0.84150  Biso   1.000  H 
  H41      1.0000 0.31620  0.95060  0.26450  Biso   1.000  H 
  H42      1.0000 0.68380  0.45060  0.23550  Biso   1.000  H 
  H43      1.0000 0.68380  0.04940  0.73550  Biso   1.000  H 
  H44      1.0000 0.31620  0.54940  0.76450  Biso   1.000  H 
  C37      1.0000 0.19500  0.96400  0.35580  Biso   1.000  C 
  C38      1.0000 0.80500  0.46400  0.14420  Biso   1.000  C 
  C39      1.0000 0.80500  0.03600  0.64420  Biso   1.000  C 
  C40      1.0000 0.19500  0.53600  0.85580  Biso   1.000  C 
  C41      1.0000 0.25210  0.93830  0.46760  Biso   1.000  C 
  C42      1.0000 0.74790  0.43830  0.03240  Biso   1.000  C 
  C43      1.0000 0.74790  0.06170  0.53240  Biso   1.000  C 
  C44      1.0000 0.25210  0.56170  0.96760  Biso   1.000  C 
  H45      1.0000 0.34640  0.93310  0.50650  Biso   1.000  H 
  H46      1.0000 0.65360  0.43310  0.99350  Biso   1.000  H 
  H47      1.0000 0.65360  0.06690  0.49350  Biso   1.000  H 
  H48      1.0000 0.34640  0.56690  0.00650  Biso   1.000  H 
  C45      1.0000 0.16780  0.92060  0.51980  Biso   1.000  C 
  C46      1.0000 0.83220  0.42060  0.98020  Biso   1.000  C 
  C47      1.0000 0.83220  0.07940  0.48020  Biso   1.000  C 
  C48      1.0000 0.16780  0.57940  0.01980  Biso   1.000  C 
  H49      1.0000 0.20380  0.90220  0.59540  Biso   1.000  H 
  H50      1.0000 0.79620  0.40220  0.90460  Biso   1.000  H 
  H51      1.0000 0.79620  0.09780  0.40460  Biso   1.000  H 
  H52      1.0000 0.20380  0.59780  0.09540  Biso   1.000  H 
  C49      1.0000 0.03160  0.92910  0.46410  Biso   1.000  C 
  C50      1.0000 0.96840  0.42910  0.03590  Biso   1.000  C 
  C51      1.0000 0.96840  0.07090  0.53590  Biso   1.000  C 
  C52      1.0000 0.03160  0.57090  0.96410  Biso   1.000  C 
  H53      1.0000 0.97280  0.91700  0.50010  Biso   1.000  H 
  H54      1.0000 0.02720  0.41700  0.99990  Biso   1.000  H 
  H55      1.0000 0.02720  0.08300  0.49990  Biso   1.000  H 
  H56      1.0000 0.97280  0.58300  0.00010  Biso   1.000  H 
  C53      1.0000 0.98260  0.95610  0.35370  Biso   1.000  C 
  C54      1.0000 0.01740  0.45610  0.14630  Biso   1.000  C 
  C55      1.0000 0.01740  0.04390  0.64630  Biso   1.000  C 
  C56      1.0000 0.98260  0.54390  0.85370  Biso   1.000  C 
  H57      1.0000 0.88890  0.96300  0.31530  Biso   1.000  H 
  H58      1.0000 0.11110  0.46300  0.18470  Biso   1.000  H 
  H59      1.0000 0.11110  0.03700  0.68470  Biso   1.000  H 
  H60      1.0000 0.88890  0.53700  0.81530  Biso   1.000  H 
  C57      1.0000 0.56730  0.90570  0.26520  Biso   1.000  C 
  C58      1.0000 0.43270  0.40570  0.23480  Biso   1.000  C 
  C59      1.0000 0.43270  0.09430  0.73480  Biso   1.000  C 
  C60      1.0000 0.56730  0.59430  0.76520  Biso   1.000  C 
  C61      1.0000 0.59050  0.91120  0.38690  Biso   1.000  C 
  C62      1.0000 0.40950  0.41120  0.11310  Biso   1.000  C 
  C63      1.0000 0.40950  0.08880  0.61310  Biso   1.000  C 
  C64      1.0000 0.59050  0.58880  0.88690  Biso   1.000  C 
  H61      1.0000 0.61870  0.94590  0.42710  Biso   1.000  H 
  H62      1.0000 0.38130  0.44590  0.07290  Biso   1.000  H 
  H63      1.0000 0.38130  0.05410  0.57290  Biso   1.000  H 
  H64      1.0000 0.61870  0.55410  0.92710  Biso   1.000  H 
  C65      1.0000 0.57150  0.86490  0.44750  Biso   1.000  C 
  C66      1.0000 0.42850  0.36490  0.05250  Biso   1.000  C 
  C67      1.0000 0.42850  0.13510  0.55250  Biso   1.000  C 
  C68      1.0000 0.57150  0.63510  0.94750  Biso   1.000  C 
  H65      1.0000 0.58840  0.86860  0.53020  Biso   1.000  H 
  H66      1.0000 0.41160  0.36860  0.96980  Biso   1.000  H 
  H67      1.0000 0.41160  0.13140  0.46980  Biso   1.000  H 
  H68      1.0000 0.58840  0.63140  0.03020  Biso   1.000  H 
  C69      1.0000 0.52930  0.81400  0.39310  Biso   1.000  C 
  C70      1.0000 0.47070  0.31400  0.10690  Biso   1.000  C 
  C71      1.0000 0.47070  0.18600  0.60690  Biso   1.000  C 
  C72      1.0000 0.52930  0.68600  0.89310  Biso   1.000  C 
  C73      1.0000 0.50900  0.80940  0.27340  Biso   1.000  C 
  C74      1.0000 0.49100  0.30940  0.22660  Biso   1.000  C 
  C75      1.0000 0.49100  0.19060  0.72660  Biso   1.000  C 
  C76      1.0000 0.50900  0.69060  0.77340  Biso   1.000  C 
  H69      1.0000 0.48340  0.77430  0.23410  Biso   1.000  H 
  H70      1.0000 0.51660  0.27430  0.26590  Biso   1.000  H 
  H71      1.0000 0.51660  0.22570  0.76590  Biso   1.000  H 
  H72      1.0000 0.48340  0.72570  0.73410  Biso   1.000  H 
  C77      1.0000 0.52540  0.85490  0.20960  Biso   1.000  C 
  C78      1.0000 0.47460  0.35490  0.29040  Biso   1.000  C 
  C79      1.0000 0.47460  0.14510  0.79040  Biso   1.000  C 
  C80      1.0000 0.52540  0.64510  0.70960  Biso   1.000  C 
  H73      1.0000 0.50750  0.85100  0.12670  Biso   1.000  H 
  H74      1.0000 0.49250  0.35100  0.37330  Biso   1.000  H 
  H75      1.0000 0.49250  0.14900  0.87330  Biso   1.000  H 
  H76      1.0000 0.50750  0.64900  0.62670  Biso   1.000  H 
  C81      1.0000 0.50630  0.76550  0.46210  Biso   1.000  C 
  C82      1.0000 0.49370  0.26550  0.03790  Biso   1.000  C 
  C83      1.0000 0.49370  0.23450  0.53790  Biso   1.000  C 
  C84      1.0000 0.50630  0.73450  0.96210  Biso   1.000  C 
  H77      1.0000 0.42590  0.77250  0.47800  Biso   1.000  H 
  H78      1.0000 0.57410  0.27250  0.02200  Biso   1.000  H 
  H79      1.0000 0.57410  0.22750  0.52200  Biso   1.000  H 
  H80      1.0000 0.42590  0.72750  0.97800  Biso   1.000  H 
  H81      1.0000 0.58420  0.76120  0.53840  Biso   1.000  H 
  H82      1.0000 0.41580  0.26120  0.96160  Biso   1.000  H 
  H83      1.0000 0.41580  0.23880  0.46160  Biso   1.000  H 
  H84      1.0000 0.58420  0.73880  0.03840  Biso   1.000  H 
  H85      1.0000 0.49390  0.73110  0.41470  Biso   1.000  H 
  H86      1.0000 0.50610  0.23110  0.08530  Biso   1.000  H 
  H87      1.0000 0.50610  0.26890  0.58530  Biso   1.000  H 
  H88      1.0000 0.49390  0.76890  0.91470  Biso   1.000  H 
  C85      1.0000 0.94700  0.10580  0.91300  Biso   1.000  C 
  C86      1.0000 0.05300  0.60580  0.58700  Biso   1.000  C 
  C87      1.0000 0.05300  0.89420  0.08700  Biso   1.000  C 
  C88      1.0000 0.94700  0.39420  0.41300  Biso   1.000  C 
  H89      1.0000 0.97300  0.12000  0.84940  Biso   1.000  H 
  H90      1.0000 0.02700  0.62000  0.65060  Biso   1.000  H 
  H91      1.0000 0.02700  0.88000  0.15060  Biso   1.000  H 
  H92      1.0000 0.97300  0.38000  0.34940  Biso   1.000  H 
  H93      1.0000 0.95740  0.13540  0.97160  Biso   1.000  H 
  H94      1.0000 0.04260  0.63540  0.52840  Biso   1.000  H 
  H95      1.0000 0.04260  0.86460  0.02840  Biso   1.000  H 
  H96      1.0000 0.95740  0.36460  0.47160  Biso   1.000  H 
  H97      1.0000 0.85280  0.09370  0.87740  Biso   1.000  H 
  H98      1.0000 0.14720  0.59370  0.62260  Biso   1.000  H 
  H99      1.0000 0.14720  0.90630  0.12260  Biso   1.000  H 
  H100     1.0000 0.85280  0.40630  0.37740  Biso   1.000  H 
