data_image0
_cell_length_a       20.6677
_cell_length_b       20.6677
_cell_length_c       20.6677
_cell_angle_alpha    90
_cell_angle_beta     90
_cell_angle_gamma    90

_symmetry_space_group_name_H-M    "P 1"
_symmetry_int_tables_number       1

loop_
  _symmetry_equiv_pos_as_xyz
  'x, y, z'

loop_
  _atom_site_label
  _atom_site_occupancy
  _atom_site_fract_x
  _atom_site_fract_y
  _atom_site_fract_z
  _atom_site_thermal_displace_type
  _atom_site_B_iso_or_equiv
  _atom_site_type_symbol
  Zr1      1.0000 0.12059  0.00000  0.00000  Biso   1.000  Zr
  Zr2      1.0000 0.00000  0.00000  0.12059  Biso   1.000  Zr
  O1       1.0000 0.09316  0.00000  0.17024  Biso   1.000  O 
  C1       1.0000 0.15120  0.00000  0.15120  Biso   1.000  C 
  O2       1.0000 0.17024  0.00000  0.09316  Biso   1.000  O 
  C2       1.0000 0.20260  0.00000  0.20260  Biso   1.000  C 
  C3       1.0000 0.26700  0.00000  0.18550  Biso   1.000  C 
  C4       1.0000 0.31450  0.00000  0.23300  Biso   1.000  C 
  H1       1.0000 0.35880  0.00000  0.22100  Biso   1.000  H 
  C5       1.0000 0.29740  0.00000  0.29740  Biso   1.000  C 
  C6       1.0000 0.34880  0.00000  0.34880  Biso   1.000  C 
  O3       1.0000 0.40684  0.00000  0.32976  Biso   1.000  O 
  Zr3      1.0000 0.50000  0.00000  0.37941  Biso   1.000  Zr
  O4       1.0000 0.45060  0.04940  0.45060  Biso   1.000  O 
  Zr4      1.0000 0.37941  0.00000  0.50000  Biso   1.000  Zr
  O5       1.0000 0.32976  0.00000  0.40684  Biso   1.000  O 
  O6       1.0000 0.32976  0.00000  0.59316  Biso   1.000  O 
  C7       1.0000 0.34880  0.00000  0.65120  Biso   1.000  C 
  O7       1.0000 0.40684  0.00000  0.67024  Biso   1.000  O 
  Zr5      1.0000 0.50000  0.00000  0.62059  Biso   1.000  Zr
  O8       1.0000 0.45060  0.04940  0.54940  Biso   1.000  O 
  Zr6      1.0000 0.50000  0.12059  0.50000  Biso   1.000  Zr
  O9       1.0000 0.40684  0.17024  0.50000  Biso   1.000  O 
  C8       1.0000 0.34880  0.15120  0.50000  Biso   1.000  C 
  O10      1.0000 0.32976  0.09316  0.50000  Biso   1.000  O 
  C9       1.0000 0.29740  0.20260  0.50000  Biso   1.000  C 
  C10      1.0000 0.31450  0.26700  0.50000  Biso   1.000  C 
  H2       1.0000 0.35880  0.27900  0.50000  Biso   1.000  H 
  C11      1.0000 0.26700  0.31450  0.50000  Biso   1.000  C 
  H3       1.0000 0.27900  0.35880  0.50000  Biso   1.000  H 
  C12      1.0000 0.20260  0.29740  0.50000  Biso   1.000  C 
  C13      1.0000 0.15120  0.34880  0.50000  Biso   1.000  C 
  O11      1.0000 0.17024  0.40684  0.50000  Biso   1.000  O 
  Zr7      1.0000 0.12059  0.50000  0.50000  Biso   1.000  Zr
  O12      1.0000 0.04940  0.45060  0.45060  Biso   1.000  O 
  Zr8      1.0000 0.00000  0.37941  0.50000  Biso   1.000  Zr
  O13      1.0000 0.00000  0.32976  0.40684  Biso   1.000  O 
  C14      1.0000 0.00000  0.34880  0.34880  Biso   1.000  C 
  O14      1.0000 0.00000  0.40684  0.32976  Biso   1.000  O 
  Zr9      1.0000 0.00000  0.50000  0.37941  Biso   1.000  Zr
  O15      1.0000 0.09316  0.50000  0.32976  Biso   1.000  O 
  C15      1.0000 0.15120  0.50000  0.34880  Biso   1.000  C 
  O16      1.0000 0.17024  0.50000  0.40684  Biso   1.000  O 
  C16      1.0000 0.20260  0.50000  0.29740  Biso   1.000  C 
  C17      1.0000 0.18550  0.50000  0.23300  Biso   1.000  C 
  H4       1.0000 0.14120  0.50000  0.22100  Biso   1.000  H 
  C18      1.0000 0.23300  0.50000  0.18550  Biso   1.000  C 
  H5       1.0000 0.22100  0.50000  0.14120  Biso   1.000  H 
  C19      1.0000 0.29740  0.50000  0.20260  Biso   1.000  C 
  C20      1.0000 0.31450  0.50000  0.26700  Biso   1.000  C 
  H6       1.0000 0.35880  0.50000  0.27900  Biso   1.000  H 
  C21      1.0000 0.26700  0.50000  0.31450  Biso   1.000  C 
  H7       1.0000 0.27900  0.50000  0.35880  Biso   1.000  H 
  C22      1.0000 0.34880  0.50000  0.15120  Biso   1.000  C 
  O17      1.0000 0.40684  0.50000  0.17024  Biso   1.000  O 
  Zr10     1.0000 0.50000  0.50000  0.12059  Biso   1.000  Zr
  O18      1.0000 0.45060  0.45060  0.04940  Biso   1.000  O 
  Zr11     1.0000 0.37941  0.50000  0.00000  Biso   1.000  Zr
  O19      1.0000 0.32976  0.40684  0.00000  Biso   1.000  O 
  C23      1.0000 0.34880  0.34880  0.00000  Biso   1.000  C 
  O20      1.0000 0.40684  0.32976  0.00000  Biso   1.000  O 
  Zr12     1.0000 0.50000  0.37941  0.00000  Biso   1.000  Zr
  O21      1.0000 0.59316  0.32976  0.00000  Biso   1.000  O 
  C24      1.0000 0.65120  0.34880  0.00000  Biso   1.000  C 
  O22      1.0000 0.67024  0.40684  0.00000  Biso   1.000  O 
  Zr13     1.0000 0.62059  0.50000  0.00000  Biso   1.000  Zr
  O23      1.0000 0.54940  0.45060  0.04940  Biso   1.000  O 
  O24      1.0000 0.54940  0.54940  0.04940  Biso   1.000  O 
  Zr14     1.0000 0.50000  0.62059  0.00000  Biso   1.000  Zr
  O25      1.0000 0.40684  0.67024  0.00000  Biso   1.000  O 
  C25      1.0000 0.34880  0.65120  0.00000  Biso   1.000  C 
  O26      1.0000 0.32976  0.59316  0.00000  Biso   1.000  O 
  C26      1.0000 0.29740  0.70260  0.00000  Biso   1.000  C 
  C27      1.0000 0.31450  0.76700  0.00000  Biso   1.000  C 
  H8       1.0000 0.35880  0.77900  0.00000  Biso   1.000  H 
  C28      1.0000 0.26700  0.81450  0.00000  Biso   1.000  C 
  H9       1.0000 0.27900  0.85880  0.00000  Biso   1.000  H 
  C29      1.0000 0.20260  0.79740  0.00000  Biso   1.000  C 
  C30      1.0000 0.15120  0.84880  0.00000  Biso   1.000  C 
  O27      1.0000 0.17024  0.90684  0.00000  Biso   1.000  O 
  O28      1.0000 0.09316  0.82976  0.00000  Biso   1.000  O 
  Zr15     1.0000 0.00000  0.87941  0.00000  Biso   1.000  Zr
  O29      1.0000 0.04940  0.95060  0.04940  Biso   1.000  O 
  O30      1.0000 0.00000  0.82976  0.09316  Biso   1.000  O 
  C31      1.0000 0.00000  0.84880  0.15120  Biso   1.000  C 
  O31      1.0000 0.00000  0.90684  0.17024  Biso   1.000  O 
  C32      1.0000 0.00000  0.79740  0.20260  Biso   1.000  C 
  C33      1.0000 0.00000  0.73300  0.18550  Biso   1.000  C 
  H10      1.0000 0.00000  0.72100  0.14120  Biso   1.000  H 
  C34      1.0000 0.00000  0.68550  0.23300  Biso   1.000  C 
  H11      1.0000 0.00000  0.64120  0.22100  Biso   1.000  H 
  C35      1.0000 0.00000  0.70260  0.29740  Biso   1.000  C 
  C36      1.0000 0.00000  0.76700  0.31450  Biso   1.000  C 
  H12      1.0000 0.00000  0.77900  0.35880  Biso   1.000  H 
  C37      1.0000 0.00000  0.81450  0.26700  Biso   1.000  C 
  H13      1.0000 0.00000  0.85880  0.27900  Biso   1.000  H 
  C38      1.0000 0.00000  0.65120  0.34880  Biso   1.000  C 
  O32      1.0000 0.00000  0.67024  0.40684  Biso   1.000  O 
  Zr16     1.0000 0.00000  0.62059  0.50000  Biso   1.000  Zr
  O33      1.0000 0.04940  0.54940  0.45060  Biso   1.000  O 
  O34      1.0000 0.04940  0.54940  0.54940  Biso   1.000  O 
  Zr17     1.0000 0.00000  0.50000  0.62059  Biso   1.000  Zr
  O35      1.0000 0.00000  0.40684  0.67024  Biso   1.000  O 
  C39      1.0000 0.00000  0.34880  0.65120  Biso   1.000  C 
  O36      1.0000 0.00000  0.32976  0.59316  Biso   1.000  O 
  C40      1.0000 0.00000  0.29740  0.70260  Biso   1.000  C 
  C41      1.0000 0.00000  0.23300  0.68550  Biso   1.000  C 
  H14      1.0000 0.00000  0.22100  0.64120  Biso   1.000  H 
  C42      1.0000 0.00000  0.18550  0.73300  Biso   1.000  C 
  H15      1.0000 0.00000  0.14120  0.72100  Biso   1.000  H 
  C43      1.0000 0.00000  0.20260  0.79740  Biso   1.000  C 
  C44      1.0000 0.00000  0.15120  0.84880  Biso   1.000  C 
  O37      1.0000 0.00000  0.17024  0.90684  Biso   1.000  O 
  Zr18     1.0000 0.00000  0.12059  0.00000  Biso   1.000  Zr
  O38      1.0000 0.04940  0.04940  0.04940  Biso   1.000  O 
  O39      1.0000 0.09316  0.17024  0.00000  Biso   1.000  O 
  C45      1.0000 0.15120  0.15120  0.00000  Biso   1.000  C 
  O40      1.0000 0.17024  0.09316  0.00000  Biso   1.000  O 
  C46      1.0000 0.20260  0.20260  0.00000  Biso   1.000  C 
  C47      1.0000 0.26700  0.18550  0.00000  Biso   1.000  C 
  H16      1.0000 0.27900  0.14120  0.00000  Biso   1.000  H 
  C48      1.0000 0.31450  0.23300  0.00000  Biso   1.000  C 
  H17      1.0000 0.35880  0.22100  0.00000  Biso   1.000  H 
  C49      1.0000 0.29740  0.29740  0.00000  Biso   1.000  C 
  C50      1.0000 0.23300  0.31450  0.00000  Biso   1.000  C 
  H18      1.0000 0.22100  0.35880  0.00000  Biso   1.000  H 
  C51      1.0000 0.18550  0.26700  0.00000  Biso   1.000  C 
  H19      1.0000 0.14120  0.27900  0.00000  Biso   1.000  H 
  O41      1.0000 0.00000  0.17024  0.09316  Biso   1.000  O 
  C52      1.0000 0.00000  0.15120  0.15120  Biso   1.000  C 
  O42      1.0000 0.00000  0.09316  0.17024  Biso   1.000  O 
  C53      1.0000 0.00000  0.20260  0.20260  Biso   1.000  C 
  C54      1.0000 0.00000  0.18550  0.26700  Biso   1.000  C 
  H20      1.0000 0.00000  0.14120  0.27900  Biso   1.000  H 
  C55      1.0000 0.00000  0.23300  0.31450  Biso   1.000  C 
  H21      1.0000 0.00000  0.22100  0.35880  Biso   1.000  H 
  C56      1.0000 0.00000  0.29740  0.29740  Biso   1.000  C 
  C57      1.0000 0.00000  0.31450  0.23300  Biso   1.000  C 
  H22      1.0000 0.00000  0.35880  0.22100  Biso   1.000  H 
  C58      1.0000 0.00000  0.26700  0.18550  Biso   1.000  C 
  H23      1.0000 0.00000  0.27900  0.14120  Biso   1.000  H 
  Zr19     1.0000 0.87941  0.00000  0.00000  Biso   1.000  Zr
  O43      1.0000 0.82976  0.09316  0.00000  Biso   1.000  O 
  C59      1.0000 0.84880  0.15120  0.00000  Biso   1.000  C 
  O44      1.0000 0.90684  0.17024  0.00000  Biso   1.000  O 
  C60      1.0000 0.79740  0.20260  0.00000  Biso   1.000  C 
  C61      1.0000 0.81450  0.26700  0.00000  Biso   1.000  C 
  H24      1.0000 0.85880  0.27900  0.00000  Biso   1.000  H 
  C62      1.0000 0.76700  0.31450  0.00000  Biso   1.000  C 
  H25      1.0000 0.77900  0.35880  0.00000  Biso   1.000  H 
  C63      1.0000 0.70260  0.29740  0.00000  Biso   1.000  C 
  C64      1.0000 0.68550  0.23300  0.00000  Biso   1.000  C 
  H26      1.0000 0.64120  0.22100  0.00000  Biso   1.000  H 
  C65      1.0000 0.73300  0.18550  0.00000  Biso   1.000  C 
  H27      1.0000 0.72100  0.14120  0.00000  Biso   1.000  H 
  O45      1.0000 0.95060  0.04940  0.04940  Biso   1.000  O 
  O46      1.0000 0.82976  0.00000  0.09316  Biso   1.000  O 
  C66      1.0000 0.84880  0.00000  0.15120  Biso   1.000  C 
  O47      1.0000 0.90684  0.00000  0.17024  Biso   1.000  O 
  C67      1.0000 0.79740  0.00000  0.20260  Biso   1.000  C 
  C68      1.0000 0.73300  0.00000  0.18550  Biso   1.000  C 
  H28      1.0000 0.72100  0.00000  0.14120  Biso   1.000  H 
  C69      1.0000 0.68550  0.00000  0.23300  Biso   1.000  C 
  H29      1.0000 0.64120  0.00000  0.22100  Biso   1.000  H 
  C70      1.0000 0.70260  0.00000  0.29740  Biso   1.000  C 
  C71      1.0000 0.76700  0.00000  0.31450  Biso   1.000  C 
  H30      1.0000 0.77900  0.00000  0.35880  Biso   1.000  H 
  C72      1.0000 0.81450  0.00000  0.26700  Biso   1.000  C 
  H31      1.0000 0.85880  0.00000  0.27900  Biso   1.000  H 
  C73      1.0000 0.65120  0.00000  0.34880  Biso   1.000  C 
  O48      1.0000 0.59316  0.00000  0.32976  Biso   1.000  O 
  O49      1.0000 0.67024  0.00000  0.40684  Biso   1.000  O 
  Zr20     1.0000 0.62059  0.00000  0.50000  Biso   1.000  Zr
  O50      1.0000 0.54940  0.04940  0.45060  Biso   1.000  O 
  O51      1.0000 0.67024  0.00000  0.59316  Biso   1.000  O 
  C74      1.0000 0.65120  0.00000  0.65120  Biso   1.000  C 
  O52      1.0000 0.59316  0.00000  0.67024  Biso   1.000  O 
  C75      1.0000 0.70260  0.00000  0.70260  Biso   1.000  C 
  C76      1.0000 0.68550  0.00000  0.76700  Biso   1.000  C 
  H32      1.0000 0.64120  0.00000  0.77900  Biso   1.000  H 
  C77      1.0000 0.73300  0.00000  0.81450  Biso   1.000  C 
  H33      1.0000 0.72100  0.00000  0.85880  Biso   1.000  H 
  C78      1.0000 0.79740  0.00000  0.79740  Biso   1.000  C 
  C79      1.0000 0.81450  0.00000  0.73300  Biso   1.000  C 
  H34      1.0000 0.85880  0.00000  0.72100  Biso   1.000  H 
  C80      1.0000 0.76700  0.00000  0.68550  Biso   1.000  C 
  H35      1.0000 0.77900  0.00000  0.64120  Biso   1.000  H 
  C81      1.0000 0.84880  0.00000  0.84880  Biso   1.000  C 
  O53      1.0000 0.90684  0.00000  0.82976  Biso   1.000  O 
  Zr21     1.0000 0.00000  0.00000  0.87941  Biso   1.000  Zr
  O54      1.0000 0.09316  0.00000  0.82976  Biso   1.000  O 
  C82      1.0000 0.15120  0.00000  0.84880  Biso   1.000  C 
  O55      1.0000 0.17024  0.00000  0.90684  Biso   1.000  O 
  C83      1.0000 0.20260  0.00000  0.79740  Biso   1.000  C 
  C84      1.0000 0.26700  0.00000  0.81450  Biso   1.000  C 
  C85      1.0000 0.31450  0.00000  0.76700  Biso   1.000  C 
  H36      1.0000 0.35880  0.00000  0.77900  Biso   1.000  H 
  C86      1.0000 0.29740  0.00000  0.70260  Biso   1.000  C 
  C87      1.0000 0.23300  0.00000  0.68550  Biso   1.000  C 
  H37      1.0000 0.22100  0.00000  0.64120  Biso   1.000  H 
  C88      1.0000 0.18550  0.00000  0.73300  Biso   1.000  C 
  H38      1.0000 0.14120  0.00000  0.72100  Biso   1.000  H 
  H39      1.0000 0.27900  0.00000  0.85880  Biso   1.000  H 
  O56      1.0000 0.04940  0.04940  0.95060  Biso   1.000  O 
  O57      1.0000 0.00000  0.09316  0.82976  Biso   1.000  O 
  O58      1.0000 0.00000  0.90684  0.82976  Biso   1.000  O 
  C89      1.0000 0.00000  0.84880  0.84880  Biso   1.000  C 
  O59      1.0000 0.00000  0.82976  0.90684  Biso   1.000  O 
  C90      1.0000 0.00000  0.79740  0.79740  Biso   1.000  C 
  C91      1.0000 0.00000  0.73300  0.81450  Biso   1.000  C 
  C92      1.0000 0.00000  0.68550  0.76700  Biso   1.000  C 
  H40      1.0000 0.00000  0.64120  0.77900  Biso   1.000  H 
  C93      1.0000 0.00000  0.70260  0.70260  Biso   1.000  C 
  C94      1.0000 0.00000  0.65120  0.65120  Biso   1.000  C 
  O60      1.0000 0.00000  0.67024  0.59316  Biso   1.000  O 
  O61      1.0000 0.00000  0.59316  0.67024  Biso   1.000  O 
  C95      1.0000 0.00000  0.76700  0.68550  Biso   1.000  C 
  H41      1.0000 0.00000  0.77900  0.64120  Biso   1.000  H 
  C96      1.0000 0.00000  0.81450  0.73300  Biso   1.000  C 
  H42      1.0000 0.00000  0.85880  0.72100  Biso   1.000  H 
  H43      1.0000 0.00000  0.72100  0.85880  Biso   1.000  H 
  O62      1.0000 0.95060  0.04940  0.95060  Biso   1.000  O 
  O63      1.0000 0.04940  0.95060  0.95060  Biso   1.000  O 
  O64      1.0000 0.95060  0.95060  0.95060  Biso   1.000  O 
  O65      1.0000 0.82976  0.00000  0.90684  Biso   1.000  O 
  O66      1.0000 0.54940  0.04940  0.54940  Biso   1.000  O 
  O67      1.0000 0.67024  0.09316  0.50000  Biso   1.000  O 
  C97      1.0000 0.65120  0.15120  0.50000  Biso   1.000  C 
  O68      1.0000 0.59316  0.17024  0.50000  Biso   1.000  O 
  C98      1.0000 0.70260  0.20260  0.50000  Biso   1.000  C 
  C99      1.0000 0.68550  0.26700  0.50000  Biso   1.000  C 
  H44      1.0000 0.64120  0.27900  0.50000  Biso   1.000  H 
  C100     1.0000 0.73300  0.31450  0.50000  Biso   1.000  C 
  H45      1.0000 0.72100  0.35880  0.50000  Biso   1.000  H 
  C101     1.0000 0.79740  0.29740  0.50000  Biso   1.000  C 
  C102     1.0000 0.81450  0.23300  0.50000  Biso   1.000  C 
  C103     1.0000 0.76700  0.18550  0.50000  Biso   1.000  C 
  H46      1.0000 0.77900  0.14120  0.50000  Biso   1.000  H 
  H47      1.0000 0.85880  0.22100  0.50000  Biso   1.000  H 
  C104     1.0000 0.84880  0.34880  0.50000  Biso   1.000  C 
  O69      1.0000 0.82976  0.40684  0.50000  Biso   1.000  O 
  Zr22     1.0000 0.87941  0.50000  0.50000  Biso   1.000  Zr
  O70      1.0000 0.95060  0.45060  0.45060  Biso   1.000  O 
  O71      1.0000 0.95060  0.45060  0.54940  Biso   1.000  O 
  O72      1.0000 0.82976  0.50000  0.40684  Biso   1.000  O 
  C105     1.0000 0.84880  0.50000  0.34880  Biso   1.000  C 
  O73      1.0000 0.90684  0.50000  0.32976  Biso   1.000  O 
  C106     1.0000 0.79740  0.50000  0.29740  Biso   1.000  C 
  C107     1.0000 0.73300  0.50000  0.31450  Biso   1.000  C 
  C108     1.0000 0.68550  0.50000  0.26700  Biso   1.000  C 
  H48      1.0000 0.64120  0.50000  0.27900  Biso   1.000  H 
  C109     1.0000 0.70260  0.50000  0.20260  Biso   1.000  C 
  C110     1.0000 0.65120  0.50000  0.15120  Biso   1.000  C 
  O74      1.0000 0.59316  0.50000  0.17024  Biso   1.000  O 
  O75      1.0000 0.67024  0.50000  0.09316  Biso   1.000  O 
  C111     1.0000 0.76700  0.50000  0.18550  Biso   1.000  C 
  H49      1.0000 0.77900  0.50000  0.14120  Biso   1.000  H 
  C112     1.0000 0.81450  0.50000  0.23300  Biso   1.000  C 
  H50      1.0000 0.85880  0.50000  0.22100  Biso   1.000  H 
  H51      1.0000 0.72100  0.50000  0.35880  Biso   1.000  H 
  O76      1.0000 0.95060  0.54940  0.45060  Biso   1.000  O 
  O77      1.0000 0.82976  0.50000  0.59316  Biso   1.000  O 
  C113     1.0000 0.84880  0.50000  0.65120  Biso   1.000  C 
  O78      1.0000 0.90684  0.50000  0.67024  Biso   1.000  O 
  C114     1.0000 0.79740  0.50000  0.70260  Biso   1.000  C 
  C115     1.0000 0.81450  0.50000  0.76700  Biso   1.000  C 
  C116     1.0000 0.76700  0.50000  0.81450  Biso   1.000  C 
  H52      1.0000 0.77900  0.50000  0.85880  Biso   1.000  H 
  C117     1.0000 0.70260  0.50000  0.79740  Biso   1.000  C 
  C118     1.0000 0.65120  0.50000  0.84880  Biso   1.000  C 
  O79      1.0000 0.59316  0.50000  0.82976  Biso   1.000  O 
  Zr23     1.0000 0.50000  0.50000  0.87941  Biso   1.000  Zr
  O80      1.0000 0.45060  0.45060  0.95060  Biso   1.000  O 
  O81      1.0000 0.40684  0.50000  0.82976  Biso   1.000  O 
  C119     1.0000 0.34880  0.50000  0.84880  Biso   1.000  C 
  O82      1.0000 0.32976  0.50000  0.90684  Biso   1.000  O 
  C120     1.0000 0.29740  0.50000  0.79740  Biso   1.000  C 
  C121     1.0000 0.31450  0.50000  0.73300  Biso   1.000  C 
  H53      1.0000 0.35880  0.50000  0.72100  Biso   1.000  H 
  C122     1.0000 0.26700  0.50000  0.68550  Biso   1.000  C 
  H54      1.0000 0.27900  0.50000  0.64120  Biso   1.000  H 
  C123     1.0000 0.20260  0.50000  0.70260  Biso   1.000  C 
  C124     1.0000 0.15120  0.50000  0.65120  Biso   1.000  C 
  O83      1.0000 0.09316  0.50000  0.67024  Biso   1.000  O 
  O84      1.0000 0.17024  0.50000  0.59316  Biso   1.000  O 
  C125     1.0000 0.18550  0.50000  0.76700  Biso   1.000  C 
  H55      1.0000 0.14120  0.50000  0.77900  Biso   1.000  H 
  C126     1.0000 0.23300  0.50000  0.81450  Biso   1.000  C 
  H56      1.0000 0.22100  0.50000  0.85880  Biso   1.000  H 
  O85      1.0000 0.45060  0.54940  0.95060  Biso   1.000  O 
  O86      1.0000 0.54940  0.45060  0.95060  Biso   1.000  O 
  O87      1.0000 0.50000  0.40684  0.82976  Biso   1.000  O 
  C127     1.0000 0.50000  0.34880  0.84880  Biso   1.000  C 
  O88      1.0000 0.50000  0.32976  0.90684  Biso   1.000  O 
  C128     1.0000 0.50000  0.29740  0.79740  Biso   1.000  C 
  C129     1.0000 0.50000  0.23300  0.81450  Biso   1.000  C 
  H57      1.0000 0.50000  0.22100  0.85880  Biso   1.000  H 
  C130     1.0000 0.50000  0.18550  0.76700  Biso   1.000  C 
  H58      1.0000 0.50000  0.14120  0.77900  Biso   1.000  H 
  C131     1.0000 0.50000  0.20260  0.70260  Biso   1.000  C 
  C132     1.0000 0.50000  0.15120  0.65120  Biso   1.000  C 
  O89      1.0000 0.50000  0.17024  0.59316  Biso   1.000  O 
  O90      1.0000 0.50000  0.09316  0.67024  Biso   1.000  O 
  C133     1.0000 0.50000  0.26700  0.68550  Biso   1.000  C 
  C134     1.0000 0.50000  0.31450  0.73300  Biso   1.000  C 
  H59      1.0000 0.50000  0.35880  0.72100  Biso   1.000  H 
  H60      1.0000 0.50000  0.27900  0.64120  Biso   1.000  H 
  O91      1.0000 0.54940  0.54940  0.95060  Biso   1.000  O 
  O92      1.0000 0.50000  0.59316  0.82976  Biso   1.000  O 
  C135     1.0000 0.50000  0.65120  0.84880  Biso   1.000  C 
  O93      1.0000 0.50000  0.67024  0.90684  Biso   1.000  O 
  C136     1.0000 0.50000  0.70260  0.79740  Biso   1.000  C 
  C137     1.0000 0.50000  0.68550  0.73300  Biso   1.000  C 
  H61      1.0000 0.50000  0.64120  0.72100  Biso   1.000  H 
  C138     1.0000 0.50000  0.73300  0.68550  Biso   1.000  C 
  H62      1.0000 0.50000  0.72100  0.64120  Biso   1.000  H 
  C139     1.0000 0.50000  0.79740  0.70260  Biso   1.000  C 
  C140     1.0000 0.50000  0.81450  0.76700  Biso   1.000  C 
  C141     1.0000 0.50000  0.76700  0.81450  Biso   1.000  C 
  H63      1.0000 0.50000  0.77900  0.85880  Biso   1.000  H 
  H64      1.0000 0.50000  0.85880  0.77900  Biso   1.000  H 
  C142     1.0000 0.50000  0.84880  0.65120  Biso   1.000  C 
  O94      1.0000 0.50000  0.82976  0.59316  Biso   1.000  O 
  Zr24     1.0000 0.50000  0.87941  0.50000  Biso   1.000  Zr
  O95      1.0000 0.45060  0.95060  0.45060  Biso   1.000  O 
  O96      1.0000 0.40684  0.82976  0.50000  Biso   1.000  O 
  C143     1.0000 0.34880  0.84880  0.50000  Biso   1.000  C 
  O97      1.0000 0.32976  0.90684  0.50000  Biso   1.000  O 
  C144     1.0000 0.29740  0.79740  0.50000  Biso   1.000  C 
  C145     1.0000 0.31450  0.73300  0.50000  Biso   1.000  C 
  H65      1.0000 0.35880  0.72100  0.50000  Biso   1.000  H 
  C146     1.0000 0.26700  0.68550  0.50000  Biso   1.000  C 
  H66      1.0000 0.27900  0.64120  0.50000  Biso   1.000  H 
  C147     1.0000 0.20260  0.70260  0.50000  Biso   1.000  C 
  C148     1.0000 0.15120  0.65120  0.50000  Biso   1.000  C 
  O98      1.0000 0.17024  0.59316  0.50000  Biso   1.000  O 
  O99      1.0000 0.09316  0.67024  0.50000  Biso   1.000  O 
  C149     1.0000 0.18550  0.76700  0.50000  Biso   1.000  C 
  H67      1.0000 0.14120  0.77900  0.50000  Biso   1.000  H 
  C150     1.0000 0.23300  0.81450  0.50000  Biso   1.000  C 
  H68      1.0000 0.22100  0.85880  0.50000  Biso   1.000  H 
  O100     1.0000 0.45060  0.95060  0.54940  Biso   1.000  O 
  O101     1.0000 0.50000  0.82976  0.40684  Biso   1.000  O 
  C151     1.0000 0.50000  0.84880  0.34880  Biso   1.000  C 
  O102     1.0000 0.50000  0.90684  0.32976  Biso   1.000  O 
  C152     1.0000 0.50000  0.79740  0.29740  Biso   1.000  C 
  C153     1.0000 0.50000  0.73300  0.31450  Biso   1.000  C 
  C154     1.0000 0.50000  0.68550  0.26700  Biso   1.000  C 
  H69      1.0000 0.50000  0.64120  0.27900  Biso   1.000  H 
  C155     1.0000 0.50000  0.70260  0.20260  Biso   1.000  C 
  C156     1.0000 0.50000  0.65120  0.15120  Biso   1.000  C 
  O103     1.0000 0.50000  0.67024  0.09316  Biso   1.000  O 
  O104     1.0000 0.50000  0.59316  0.17024  Biso   1.000  O 
  C157     1.0000 0.50000  0.76700  0.18550  Biso   1.000  C 
  H70      1.0000 0.50000  0.77900  0.14120  Biso   1.000  H 
  C158     1.0000 0.50000  0.81450  0.23300  Biso   1.000  C 
  H71      1.0000 0.50000  0.85880  0.22100  Biso   1.000  H 
  H72      1.0000 0.50000  0.72100  0.35880  Biso   1.000  H 
  O105     1.0000 0.54940  0.95060  0.45060  Biso   1.000  O 
  O106     1.0000 0.59316  0.82976  0.50000  Biso   1.000  O 
  C159     1.0000 0.65120  0.84880  0.50000  Biso   1.000  C 
  O107     1.0000 0.67024  0.90684  0.50000  Biso   1.000  O 
  C160     1.0000 0.70260  0.79740  0.50000  Biso   1.000  C 
  C161     1.0000 0.76700  0.81450  0.50000  Biso   1.000  C 
  H73      1.0000 0.77900  0.85880  0.50000  Biso   1.000  H 
  C162     1.0000 0.81450  0.76700  0.50000  Biso   1.000  C 
  H74      1.0000 0.85880  0.77900  0.50000  Biso   1.000  H 
  C163     1.0000 0.79740  0.70260  0.50000  Biso   1.000  C 
  C164     1.0000 0.84880  0.65120  0.50000  Biso   1.000  C 
  O108     1.0000 0.82976  0.59316  0.50000  Biso   1.000  O 
  O109     1.0000 0.90684  0.67024  0.50000  Biso   1.000  O 
  C165     1.0000 0.73300  0.68550  0.50000  Biso   1.000  C 
  H75      1.0000 0.72100  0.64120  0.50000  Biso   1.000  H 
  C166     1.0000 0.68550  0.73300  0.50000  Biso   1.000  C 
  H76      1.0000 0.64120  0.72100  0.50000  Biso   1.000  H 
  O110     1.0000 0.54940  0.95060  0.54940  Biso   1.000  O 
  O111     1.0000 0.50000  0.90684  0.67024  Biso   1.000  O 
  O112     1.0000 0.67024  0.50000  0.90684  Biso   1.000  O 
  C167     1.0000 0.68550  0.50000  0.73300  Biso   1.000  C 
  H77      1.0000 0.64120  0.50000  0.72100  Biso   1.000  H 
  C168     1.0000 0.73300  0.50000  0.68550  Biso   1.000  C 
  H78      1.0000 0.72100  0.50000  0.64120  Biso   1.000  H 
  H79      1.0000 0.85880  0.50000  0.77900  Biso   1.000  H 
  O113     1.0000 0.95060  0.54940  0.54940  Biso   1.000  O 
  O114     1.0000 0.90684  0.32976  0.50000  Biso   1.000  O 
  O115     1.0000 0.82976  0.90684  0.00000  Biso   1.000  O 
  C169     1.0000 0.84880  0.84880  0.00000  Biso   1.000  C 
  O116     1.0000 0.90684  0.82976  0.00000  Biso   1.000  O 
  C170     1.0000 0.79740  0.79740  0.00000  Biso   1.000  C 
  C171     1.0000 0.73300  0.81450  0.00000  Biso   1.000  C 
  C172     1.0000 0.68550  0.76700  0.00000  Biso   1.000  C 
  H80      1.0000 0.64120  0.77900  0.00000  Biso   1.000  H 
  C173     1.0000 0.70260  0.70260  0.00000  Biso   1.000  C 
  C174     1.0000 0.65120  0.65120  0.00000  Biso   1.000  C 
  O117     1.0000 0.67024  0.59316  0.00000  Biso   1.000  O 
  O118     1.0000 0.59316  0.67024  0.00000  Biso   1.000  O 
  C175     1.0000 0.76700  0.68550  0.00000  Biso   1.000  C 
  H81      1.0000 0.77900  0.64120  0.00000  Biso   1.000  H 
  C176     1.0000 0.81450  0.73300  0.00000  Biso   1.000  C 
  H82      1.0000 0.85880  0.72100  0.00000  Biso   1.000  H 
  H83      1.0000 0.72100  0.85880  0.00000  Biso   1.000  H 
  O119     1.0000 0.95060  0.95060  0.04940  Biso   1.000  O 
  C177     1.0000 0.00000  0.26700  0.81450  Biso   1.000  C 
  H84      1.0000 0.00000  0.27900  0.85880  Biso   1.000  H 
  C178     1.0000 0.00000  0.31450  0.76700  Biso   1.000  C 
  H85      1.0000 0.00000  0.35880  0.77900  Biso   1.000  H 
  O120     1.0000 0.04940  0.45060  0.54940  Biso   1.000  O 
  O121     1.0000 0.00000  0.59316  0.32976  Biso   1.000  O 
  C179     1.0000 0.18550  0.73300  0.00000  Biso   1.000  C 
  H86      1.0000 0.14120  0.72100  0.00000  Biso   1.000  H 
  C180     1.0000 0.23300  0.68550  0.00000  Biso   1.000  C 
  H87      1.0000 0.22100  0.64120  0.00000  Biso   1.000  H 
  O122     1.0000 0.45060  0.54940  0.04940  Biso   1.000  O 
  O123     1.0000 0.50000  0.32976  0.09316  Biso   1.000  O 
  C181     1.0000 0.50000  0.34880  0.15120  Biso   1.000  C 
  O124     1.0000 0.50000  0.40684  0.17024  Biso   1.000  O 
  C182     1.0000 0.50000  0.29740  0.20260  Biso   1.000  C 
  C183     1.0000 0.50000  0.23300  0.18550  Biso   1.000  C 
  H88      1.0000 0.50000  0.22100  0.14120  Biso   1.000  H 
  C184     1.0000 0.50000  0.18550  0.23300  Biso   1.000  C 
  H89      1.0000 0.50000  0.14120  0.22100  Biso   1.000  H 
  C185     1.0000 0.50000  0.20260  0.29740  Biso   1.000  C 
  C186     1.0000 0.50000  0.15120  0.34880  Biso   1.000  C 
  O125     1.0000 0.50000  0.17024  0.40684  Biso   1.000  O 
  O126     1.0000 0.50000  0.09316  0.32976  Biso   1.000  O 
  C187     1.0000 0.50000  0.26700  0.31450  Biso   1.000  C 
  C188     1.0000 0.50000  0.31450  0.26700  Biso   1.000  C 
  H90      1.0000 0.50000  0.35880  0.27900  Biso   1.000  H 
  H91      1.0000 0.50000  0.27900  0.35880  Biso   1.000  H 
  O127     1.0000 0.32976  0.50000  0.09316  Biso   1.000  O 
  O128     1.0000 0.09316  0.32976  0.50000  Biso   1.000  O 
  C189     1.0000 0.18550  0.23300  0.50000  Biso   1.000  C 
  H92      1.0000 0.14120  0.22100  0.50000  Biso   1.000  H 
  C190     1.0000 0.23300  0.18550  0.50000  Biso   1.000  C 
  H93      1.0000 0.22100  0.14120  0.50000  Biso   1.000  H 
  C191     1.0000 0.23300  0.00000  0.31450  Biso   1.000  C 
  H94      1.0000 0.22100  0.00000  0.35880  Biso   1.000  H 
  C192     1.0000 0.18550  0.00000  0.26700  Biso   1.000  C 
  H95      1.0000 0.14120  0.00000  0.27900  Biso   1.000  H 
  H96      1.0000 0.27900  0.00000  0.14120  Biso   1.000  H 
