data_image0
_cell_length_a       10.0433
_cell_length_b       18.729
_cell_length_c       15.392
_cell_angle_alpha    90
_cell_angle_beta     94.174
_cell_angle_gamma    90

_symmetry_space_group_name_H-M    "P 1"
_symmetry_int_tables_number       1

loop_
  _symmetry_equiv_pos_as_xyz
  'x, y, z'

loop_
  _atom_site_label
  _atom_site_occupancy
  _atom_site_fract_x
  _atom_site_fract_y
  _atom_site_fract_z
  _atom_site_thermal_displace_type
  _atom_site_B_iso_or_equiv
  _atom_site_type_symbol
  C1       1.0000 0.55580  0.15500  0.83758  Biso   1.000  C 
  C2       1.0000 0.94420  0.65500  0.66242  Biso   1.000  C 
  C3       1.0000 0.44420  0.84500  0.16242  Biso   1.000  C 
  C4       1.0000 0.05580  0.34500  0.33758  Biso   1.000  C 
  C5       1.0000 0.53030  0.23675  0.71382  Biso   1.000  C 
  C6       1.0000 0.96970  0.73675  0.78618  Biso   1.000  C 
  C7       1.0000 0.46970  0.76325  0.28618  Biso   1.000  C 
  C8       1.0000 0.03030  0.26325  0.21382  Biso   1.000  C 
  H1       1.0000 0.43568  0.22600  0.71207  Biso   1.000  H 
  H2       1.0000 0.06432  0.72600  0.78793  Biso   1.000  H 
  H3       1.0000 0.56432  0.77400  0.28793  Biso   1.000  H 
  H4       1.0000 0.93568  0.27400  0.21207  Biso   1.000  H 
  H5       1.0000 0.55648  0.23738  0.65439  Biso   1.000  H 
  H6       1.0000 0.94352  0.73738  0.84561  Biso   1.000  H 
  H7       1.0000 0.44352  0.76262  0.34561  Biso   1.000  H 
  H8       1.0000 0.05648  0.26262  0.15439  Biso   1.000  H 
  C9       1.0000 0.16480  0.32895  0.77683  Biso   1.000  C 
  C10      1.0000 0.33520  0.82895  0.72317  Biso   1.000  C 
  C11      1.0000 0.83520  0.67105  0.22317  Biso   1.000  C 
  C12      1.0000 0.66480  0.17105  0.27683  Biso   1.000  C 
  C13      1.0000 0.55540  0.30986  0.75465  Biso   1.000  C 
  C14      1.0000 0.94460  0.80986  0.74535  Biso   1.000  C 
  C15      1.0000 0.44460  0.69014  0.24535  Biso   1.000  C 
  C16      1.0000 0.05540  0.19014  0.25465  Biso   1.000  C 
  H9       1.0000 0.52845  0.30972  0.81390  Biso   1.000  H 
  H10      1.0000 0.97155  0.80972  0.68610  Biso   1.000  H 
  H11      1.0000 0.47155  0.69028  0.18610  Biso   1.000  H 
  H12      1.0000 0.02845  0.19028  0.31390  Biso   1.000  H 
  H13      1.0000 0.64990  0.32094  0.75651  Biso   1.000  H 
  H14      1.0000 0.85010  0.82094  0.74349  Biso   1.000  H 
  H15      1.0000 0.35010  0.67906  0.24349  Biso   1.000  H 
  H16      1.0000 0.14990  0.17906  0.25651  Biso   1.000  H 
  C17      1.0000 0.62820  0.09997  0.88238  Biso   1.000  C 
  C18      1.0000 0.87180  0.59997  0.61762  Biso   1.000  C 
  C19      1.0000 0.37180  0.90003  0.11762  Biso   1.000  C 
  C20      1.0000 0.12820  0.40003  0.38238  Biso   1.000  C 
  H17      1.0000 0.59651  0.08077  0.93263  Biso   1.000  H 
  H18      1.0000 0.90349  0.58077  0.56737  Biso   1.000  H 
  H19      1.0000 0.40349  0.91923  0.06737  Biso   1.000  H 
  H20      1.0000 0.09651  0.41923  0.43263  Biso   1.000  H 
  C21      1.0000 0.34110  0.41706  0.81582  Biso   1.000  C 
  C22      1.0000 0.15890  0.91706  0.68418  Biso   1.000  C 
  C23      1.0000 0.65890  0.58294  0.18418  Biso   1.000  C 
  C24      1.0000 0.84110  0.08294  0.31582  Biso   1.000  C 
  H21      1.0000 0.36749  0.38006  0.85768  Biso   1.000  H 
  H22      1.0000 0.13251  0.88006  0.64232  Biso   1.000  H 
  H23      1.0000 0.63251  0.61994  0.14232  Biso   1.000  H 
  H24      1.0000 0.86749  0.11994  0.35768  Biso   1.000  H 
  H25      1.0000 0.32887  0.46092  0.84782  Biso   1.000  H 
  H26      1.0000 0.17113  0.96092  0.65218  Biso   1.000  H 
  H27      1.0000 0.67113  0.53908  0.15218  Biso   1.000  H 
  H28      1.0000 0.82887  0.03908  0.34782  Biso   1.000  H 
  C25      1.0000 0.44560  0.39796  0.54858  Biso   1.000  C 
  C26      1.0000 0.05440  0.89796  0.95142  Biso   1.000  C 
  C27      1.0000 0.55440  0.60204  0.45142  Biso   1.000  C 
  C28      1.0000 0.94560  0.10204  0.04858  Biso   1.000  C 
  H29      1.0000 0.37985  0.43218  0.56557  Biso   1.000  H 
  H30      1.0000 0.12015  0.93218  0.93443  Biso   1.000  H 
  H31      1.0000 0.62015  0.56782  0.43443  Biso   1.000  H 
  H32      1.0000 0.87985  0.06782  0.06557  Biso   1.000  H 
  H33      1.0000 0.49105  0.41839  0.50094  Biso   1.000  H 
  H34      1.0000 0.00895  0.91839  0.99906  Biso   1.000  H 
  H35      1.0000 0.50895  0.58161  0.49906  Biso   1.000  H 
  H36      1.0000 0.99105  0.08161  0.00094  Biso   1.000  H 
  C29      1.0000 0.54540  0.38386  0.62467  Biso   1.000  C 
  C30      1.0000 0.95460  0.88386  0.87533  Biso   1.000  C 
  C31      1.0000 0.45460  0.61614  0.37533  Biso   1.000  C 
  C32      1.0000 0.04540  0.11614  0.12467  Biso   1.000  C 
  H37      1.0000 0.60477  0.34564  0.60967  Biso   1.000  H 
  H38      1.0000 0.89523  0.84564  0.89033  Biso   1.000  H 
  H39      1.0000 0.39523  0.65436  0.39033  Biso   1.000  H 
  H40      1.0000 0.10477  0.15436  0.10967  Biso   1.000  H 
  H41      1.0000 0.59901  0.42634  0.63641  Biso   1.000  H 
  H42      1.0000 0.90099  0.92634  0.86359  Biso   1.000  H 
  H43      1.0000 0.40099  0.57366  0.36359  Biso   1.000  H 
  H44      1.0000 0.09901  0.07366  0.13641  Biso   1.000  H 
  C33      1.0000 0.45180  0.42775  0.75491  Biso   1.000  C 
  C34      1.0000 0.04820  0.92775  0.74509  Biso   1.000  C 
  C35      1.0000 0.54820  0.57225  0.24509  Biso   1.000  C 
  C36      1.0000 0.95180  0.07225  0.25491  Biso   1.000  C 
  H45      1.0000 0.42719  0.46662  0.71528  Biso   1.000  H 
  H46      1.0000 0.07281  0.96662  0.78472  Biso   1.000  H 
  H47      1.0000 0.57281  0.53338  0.28472  Biso   1.000  H 
  H48      1.0000 0.92719  0.03338  0.21528  Biso   1.000  H 
  H49      1.0000 0.53264  0.44163  0.78902  Biso   1.000  H 
  H50      1.0000 0.96736  0.94163  0.71098  Biso   1.000  H 
  H51      1.0000 0.46736  0.55837  0.21098  Biso   1.000  H 
  H52      1.0000 0.03264  0.05837  0.28902  Biso   1.000  H 
  C37      1.0000 0.43400  0.28971  0.45848  Biso   1.000  C 
  C38      1.0000 0.06600  0.78971  0.04152  Biso   1.000  C 
  C39      1.0000 0.56600  0.71029  0.54152  Biso   1.000  C 
  C40      1.0000 0.93400  0.21029  0.95848  Biso   1.000  C 
  C41      1.0000 0.72290  0.15546  0.73521  Biso   1.000  C 
  C42      1.0000 0.77710  0.65546  0.76479  Biso   1.000  C 
  C43      1.0000 0.27710  0.84454  0.26479  Biso   1.000  C 
  C44      1.0000 0.22290  0.34454  0.23521  Biso   1.000  C 
  H53      1.0000 0.75503  0.17444  0.68496  Biso   1.000  H 
  H54      1.0000 0.74497  0.67444  0.81504  Biso   1.000  H 
  H55      1.0000 0.24497  0.82556  0.31504  Biso   1.000  H 
  H56      1.0000 0.25503  0.32556  0.18496  Biso   1.000  H 
  C45      1.0000 0.04290  0.31289  0.72829  Biso   1.000  C 
  C46      1.0000 0.45710  0.81289  0.77171  Biso   1.000  C 
  C47      1.0000 0.95710  0.68711  0.27171  Biso   1.000  C 
  C48      1.0000 0.54290  0.18711  0.22829  Biso   1.000  C 
  H57      1.0000 0.00586  0.26765  0.73271  Biso   1.000  H 
  H58      1.0000 0.49414  0.76765  0.76729  Biso   1.000  H 
  H59      1.0000 0.99414  0.73235  0.26729  Biso   1.000  H 
  H60      1.0000 0.50586  0.23235  0.23271  Biso   1.000  H 
  C49      1.0000 0.14820  0.44611  0.71598  Biso   1.000  C 
  C50      1.0000 0.35180  0.94611  0.78402  Biso   1.000  C 
  C51      1.0000 0.85180  0.55389  0.28402  Biso   1.000  C 
  C52      1.0000 0.64820  0.05389  0.21598  Biso   1.000  C 
  H61      1.0000 0.18390  0.49172  0.71207  Biso   1.000  H 
  H62      1.0000 0.31610  0.99172  0.78793  Biso   1.000  H 
  H63      1.0000 0.81610  0.50828  0.28793  Biso   1.000  H 
  H64      1.0000 0.68390  0.00828  0.21207  Biso   1.000  H 
  C53      1.0000 0.74290  0.07480  0.85321  Biso   1.000  C 
  C54      1.0000 0.75710  0.57480  0.64679  Biso   1.000  C 
  C55      1.0000 0.25710  0.92520  0.14679  Biso   1.000  C 
  C56      1.0000 0.24290  0.42520  0.35321  Biso   1.000  C 
  H65      1.0000 0.78873  0.03796  0.88284  Biso   1.000  H 
  H66      1.0000 0.71127  0.53796  0.61716  Biso   1.000  H 
  H67      1.0000 0.21127  0.96204  0.11716  Biso   1.000  H 
  H68      1.0000 0.28873  0.46204  0.38284  Biso   1.000  H 
  C57      1.0000 0.36980  0.22543  0.43568  Biso   1.000  C 
  C58      1.0000 0.13020  0.72543  0.06432  Biso   1.000  C 
  C59      1.0000 0.63020  0.77457  0.56432  Biso   1.000  C 
  C60      1.0000 0.86980  0.27457  0.93568  Biso   1.000  C 
  H69      1.0000 0.40511  0.19584  0.39461  Biso   1.000  H 
  H70      1.0000 0.09489  0.69584  0.10539  Biso   1.000  H 
  H71      1.0000 0.59489  0.80416  0.60539  Biso   1.000  H 
  H72      1.0000 0.90511  0.30416  0.89461  Biso   1.000  H 
  C61      1.0000 0.26420  0.31095  0.55597  Biso   1.000  C 
  C62      1.0000 0.23580  0.81095  0.94403  Biso   1.000  C 
  C63      1.0000 0.73580  0.68905  0.44403  Biso   1.000  C 
  C64      1.0000 0.76420  0.18905  0.05597  Biso   1.000  C 
  H73      1.0000 0.22889  0.34027  0.59730  Biso   1.000  H 
  H74      1.0000 0.27111  0.84027  0.90270  Biso   1.000  H 
  H75      1.0000 0.77111  0.65973  0.40270  Biso   1.000  H 
  H76      1.0000 0.72889  0.15973  0.09730  Biso   1.000  H 
  C65      1.0000 0.79270  0.10386  0.77896  Biso   1.000  C 
  C66      1.0000 0.70730  0.60386  0.72104  Biso   1.000  C 
  C67      1.0000 0.20730  0.89614  0.22104  Biso   1.000  C 
  C68      1.0000 0.29270  0.39614  0.27896  Biso   1.000  C 
  H77      1.0000 0.87318  0.08783  0.75982  Biso   1.000  H 
  H78      1.0000 0.62682  0.58783  0.74018  Biso   1.000  H 
  H79      1.0000 0.12682  0.91217  0.24018  Biso   1.000  H 
  H80      1.0000 0.37318  0.41217  0.25982  Biso   1.000  H 
  C69      1.0000 0.97980  0.36178  0.67595  Biso   1.000  C 
  C70      1.0000 0.52020  0.86178  0.82405  Biso   1.000  C 
  C71      1.0000 0.02020  0.63822  0.32405  Biso   1.000  C 
  C72      1.0000 0.47980  0.13822  0.17595  Biso   1.000  C 
  H81      1.0000 0.90041  0.35006  0.64431  Biso   1.000  H 
  H82      1.0000 0.59959  0.85006  0.85569  Biso   1.000  H 
  H83      1.0000 0.09959  0.64994  0.35569  Biso   1.000  H 
  H84      1.0000 0.40041  0.14994  0.14431  Biso   1.000  H 
  C73      1.0000 0.03400  0.43030  0.66930  Biso   1.000  C 
  C74      1.0000 0.46600  0.93030  0.83070  Biso   1.000  C 
  C75      1.0000 0.96600  0.56970  0.33070  Biso   1.000  C 
  C76      1.0000 0.53400  0.06970  0.16930  Biso   1.000  C 
  H85      1.0000 0.99150  0.46431  0.63301  Biso   1.000  H 
  H86      1.0000 0.50850  0.96431  0.86699  Biso   1.000  H 
  H87      1.0000 0.00850  0.53569  0.36700  Biso   1.000  H 
  H88      1.0000 0.49150  0.03569  0.13301  Biso   1.000  H 
  C77      1.0000 0.25580  0.20537  0.47290  Biso   1.000  C 
  C78      1.0000 0.24420  0.70537  0.02710  Biso   1.000  C 
  C79      1.0000 0.74420  0.79463  0.52710  Biso   1.000  C 
  C80      1.0000 0.75580  0.29463  0.97290  Biso   1.000  C 
  H89      1.0000 0.21449  0.16230  0.45742  Biso   1.000  H 
  H90      1.0000 0.28551  0.66230  0.04258  Biso   1.000  H 
  H91      1.0000 0.78551  0.83770  0.54258  Biso   1.000  H 
  H92      1.0000 0.71449  0.33770  0.95742  Biso   1.000  H 
  C81      1.0000 0.20190  0.24953  0.53388  Biso   1.000  C 
  C82      1.0000 0.29810  0.74953  0.96612  Biso   1.000  C 
  C83      1.0000 0.79810  0.75047  0.46612  Biso   1.000  C 
  C84      1.0000 0.70190  0.25047  0.03388  Biso   1.000  C 
  H93      1.0000 0.12392  0.23670  0.55898  Biso   1.000  H 
  H94      1.0000 0.37608  0.73670  0.94102  Biso   1.000  H 
  H95      1.0000 0.87608  0.76330  0.44102  Biso   1.000  H 
  H96      1.0000 0.62392  0.26330  0.05898  Biso   1.000  H 
  N1       1.0000 0.37836  0.33173  0.51941  Biso   1.000  N 
  N2       1.0000 0.12164  0.83173  0.98059  Biso   1.000  N 
  N3       1.0000 0.62164  0.66827  0.48059  Biso   1.000  N 
  N4       1.0000 0.87836  0.16827  0.01941  Biso   1.000  N 
  N5       1.0000 0.47975  0.36395  0.70370  Biso   1.000  N 
  N6       1.0000 0.02025  0.86395  0.79630  Biso   1.000  N 
  N7       1.0000 0.52025  0.63605  0.29630  Biso   1.000  N 
  N8       1.0000 0.97975  0.13605  0.20370  Biso   1.000  N 
  Lu1      1.0000 0.24395  0.18212  0.89337  Biso   1.000  Lu
  Lu2      1.0000 0.25605  0.68212  0.60663  Biso   1.000  Lu
  Lu3      1.0000 0.75605  0.81788  0.10663  Biso   1.000  Lu
  Lu4      1.0000 0.74395  0.31788  0.39337  Biso   1.000  Lu
  Cl1      1.0000 0.27992  0.06109  0.97132  Biso   1.000  Cl
  Cl2      1.0000 0.22008  0.56109  0.52868  Biso   1.000  Cl
  Cl3      1.0000 0.72008  0.93891  0.02868  Biso   1.000  Cl
  Cl4      1.0000 0.77992  0.43891  0.47132  Biso   1.000  Cl
  Cl5      1.0000 0.17528  0.12123  0.74580  Biso   1.000  Cl
  Cl6      1.0000 0.32472  0.62123  0.75420  Biso   1.000  Cl
  Cl7      1.0000 0.82472  0.87877  0.25420  Biso   1.000  Cl
  Cl8      1.0000 0.67528  0.37877  0.24580  Biso   1.000  Cl
  Cl9      1.0000 0.29916  0.25875  0.03209  Biso   1.000  Cl
  Cl10     1.0000 0.20084  0.75875  0.46791  Biso   1.000  Cl
  Cl11     1.0000 0.70084  0.74125  0.96791  Biso   1.000  Cl
  Cl12     1.0000 0.79916  0.24125  0.53209  Biso   1.000  Cl
  O1       1.0000 0.45019  0.18265  0.86238  Biso   1.000  O 
  O2       1.0000 0.04981  0.68265  0.63762  Biso   1.000  O 
  O3       1.0000 0.54981  0.81735  0.13762  Biso   1.000  O 
  O4       1.0000 0.95019  0.31735  0.36238  Biso   1.000  O 
  O5       1.0000 0.22977  0.28494  0.82514  Biso   1.000  O 
  O6       1.0000 0.27023  0.78494  0.67486  Biso   1.000  O 
  O7       1.0000 0.77023  0.71506  0.17486  Biso   1.000  O 
  O8       1.0000 0.72977  0.21506  0.32514  Biso   1.000  O 
  O9       1.0000 0.53775  0.31255  0.42496  Biso   1.000  O 
  O10      1.0000 0.96225  0.81255  0.07504  Biso   1.000  O 
  O11      1.0000 0.46225  0.68745  0.57504  Biso   1.000  O 
  O12      1.0000 0.03775  0.18745  0.92496  Biso   1.000  O 
  N9       1.0000 0.21357  0.39693  0.76922  Biso   1.000  N 
  N10      1.0000 0.28643  0.89693  0.73078  Biso   1.000  N 
  N11      1.0000 0.78643  0.60307  0.23078  Biso   1.000  N 
  N12      1.0000 0.71357  0.10307  0.26922  Biso   1.000  N 
  N13      1.0000 0.60575  0.18044  0.76329  Biso   1.000  N 
  N14      1.0000 0.89425  0.68044  0.73671  Biso   1.000  N 
  N15      1.0000 0.39425  0.81956  0.23671  Biso   1.000  N 
  N16      1.0000 0.10575  0.31956  0.26329  Biso   1.000  N 
