data_image0
_cell_length_a       21.177
_cell_length_b       23.657
_cell_length_c       11.481
_cell_angle_alpha    90
_cell_angle_beta     90
_cell_angle_gamma    90

_symmetry_space_group_name_H-M    "P 1"
_symmetry_int_tables_number       1

loop_
  _symmetry_equiv_pos_as_xyz
  'x, y, z'

loop_
  _atom_site_label
  _atom_site_occupancy
  _atom_site_fract_x
  _atom_site_fract_y
  _atom_site_fract_z
  _atom_site_thermal_displace_type
  _atom_site_B_iso_or_equiv
  _atom_site_type_symbol
  Cd1      1.0000 0.00000  0.50000  0.00000  Biso   1.000  Cd
  N1       1.0000 0.06990  0.55610  0.89080  Biso   1.000  N 
  C1       1.0000 0.06960  0.57210  0.77860  Biso   1.000  C 
  H1       1.0000 0.03610  0.56450  0.72860  Biso   1.000  H 
  N2       1.0000 0.12100  0.59980  0.74530  Biso   1.000  N 
  N3       1.0000 0.15550  0.60095  0.84400  Biso   1.000  N 
  C2       1.0000 0.21810  0.62630  0.84970  Biso   1.000  C 
  H2       1.0000 0.23980  0.61210  0.91810  Biso   1.000  H 
  H3       1.0000 0.24210  0.61490  0.78180  Biso   1.000  H 
  C3       1.0000 0.21630  0.69040  0.85520  Biso   1.000  C 
  C4       1.0000 0.27460  0.71970  0.87070  Biso   1.000  C 
  C5       1.0000 0.33260  0.69110  0.88760  Biso   1.000  C 
  C6       1.0000 0.38770  0.72090  0.90320  Biso   1.000  C 
  H4       1.0000 0.42540  0.70150  0.91390  Biso   1.000  H 
  C7       1.0000 0.38770  0.77910  0.90320  Biso   1.000  C 
  H5       1.0000 0.42540  0.79850  0.91390  Biso   1.000  H 
  C8       1.0000 0.33260  0.80890  0.88760  Biso   1.000  C 
  H6       1.0000 0.33340  0.84820  0.88830  Biso   1.000  H 
  C9       1.0000 0.27460  0.78030  0.87070  Biso   1.000  C 
  C10      1.0000 0.21630  0.80960  0.85520  Biso   1.000  C 
  C11      1.0000 0.21810  0.87370  0.84970  Biso   1.000  C 
  H7       1.0000 0.24210  0.88510  0.78180  Biso   1.000  H 
  H8       1.0000 0.23980  0.88790  0.91810  Biso   1.000  H 
  N4       1.0000 0.15550  0.89905  0.84400  Biso   1.000  N 
  N5       1.0000 0.12100  0.90020  0.74530  Biso   1.000  N 
  C12      1.0000 0.06960  0.92790  0.77860  Biso   1.000  C 
  H9       1.0000 0.03610  0.93550  0.72860  Biso   1.000  H 
  N6       1.0000 0.06990  0.94390  0.89080  Biso   1.000  N 
  C13      1.0000 0.12470  0.92490  0.92740  Biso   1.000  C 
  H10      1.0000 0.13980  0.92920  0.00300  Biso   1.000  H 
  Cd2      1.0000 0.00000  0.00000  0.00000  Biso   1.000  Cd
  N7       1.0000 0.08680  0.05360  0.05040  Biso   1.000  N 
  C14      1.0000 0.09590  0.08920  0.14030  Biso   1.000  C 
  H11      1.0000 0.06810  0.09180  0.20260  Biso   1.000  H 
  C15      1.0000 0.13640  0.06370  0.98610  Biso   1.000  C 
  H12      1.0000 0.14520  0.04490  0.91670  Biso   1.000  H 
  N8       1.0000 0.17260  0.10340  0.03080  Biso   1.000  N 
  N9       1.0000 0.14750  0.12000  0.13270  Biso   1.000  N 
  C16      1.0000 0.23200  0.12660  0.98770  Biso   1.000  C 
  H13      1.0000 0.24030  0.11170  0.91050  Biso   1.000  H 
  H14      1.0000 0.26620  0.11460  0.03840  Biso   1.000  H 
  C17      1.0000 0.23060  0.19050  0.98250  Biso   1.000  C 
  C18      1.0000 0.26660  0.22000  0.05920  Biso   1.000  C 
  H15      1.0000 0.29170  0.20060  0.11250  Biso   1.000  H 
  C19      1.0000 0.26660  0.28000  0.05920  Biso   1.000  C 
  H16      1.0000 0.29170  0.29940  0.11250  Biso   1.000  H 
  C20      1.0000 0.23060  0.30950  0.98250  Biso   1.000  C 
  C21      1.0000 0.23200  0.37340  0.98770  Biso   1.000  C 
  H17      1.0000 0.24030  0.38830  0.91050  Biso   1.000  H 
  N10      1.0000 0.17260  0.39660  0.03080  Biso   1.000  N 
  N11      1.0000 0.14750  0.38000  0.13270  Biso   1.000  N 
  C22      1.0000 0.09590  0.41080  0.14030  Biso   1.000  C 
  H18      1.0000 0.06810  0.40820  0.20260  Biso   1.000  H 
  N12      1.0000 0.08680  0.44640  0.05040  Biso   1.000  N 
  C23      1.0000 0.13640  0.43630  0.98610  Biso   1.000  C 
  H19      1.0000 0.14520  0.45510  0.91670  Biso   1.000  H 
  H20      1.0000 0.26620  0.38540  0.03840  Biso   1.000  H 
  C24      1.0000 0.19400  0.28020  0.89710  Biso   1.000  C 
  C25      1.0000 0.19400  0.21980  0.89710  Biso   1.000  C 
  C26      1.0000 0.15820  0.19140  0.81160  Biso   1.000  C 
  H21      1.0000 0.15770  0.15210  0.81090  Biso   1.000  H 
  C27      1.0000 0.12430  0.22060  0.72960  Biso   1.000  C 
  H22      1.0000 0.10120  0.20100  0.67370  Biso   1.000  H 
  C28      1.0000 0.12430  0.27940  0.72960  Biso   1.000  C 
  H23      1.0000 0.10120  0.29900  0.67370  Biso   1.000  H 
  C29      1.0000 0.15820  0.30860  0.81160  Biso   1.000  C 
  H24      1.0000 0.15770  0.34790  0.81090  Biso   1.000  H 
  N13      1.0000 0.98510  0.05370  0.82430  Biso   1.000  N 
  C30      1.0000 0.93310  0.06880  0.76920  Biso   1.000  C 
  H25      1.0000 0.89260  0.05830  0.79210  Biso   1.000  H 
  C31      1.0000 0.02910  0.07670  0.75480  Biso   1.000  C 
  N14      1.0000 0.00860  0.10570  0.66420  Biso   1.000  N 
  N15      1.0000 0.94570  0.10090  0.67660  Biso   1.000  N 
  C32      1.0000 0.90380  0.12660  0.58960  Biso   1.000  C 
  H26      1.0000 0.91690  0.11440  0.51260  Biso   1.000  H 
  H27      1.0000 0.86120  0.11300  0.60230  Biso   1.000  H 
  C33      1.0000 0.90340  0.19100  0.59300  Biso   1.000  C 
  C34      1.0000 0.93450  0.22060  0.51000  Biso   1.000  C 
  H28      1.0000 0.94700  0.19400  0.44600  Biso   1.000  H 
  C35      1.0000 0.93450  0.27940  0.51000  Biso   1.000  C 
  H29      1.0000 0.94700  0.30600  0.44600  Biso   1.000  H 
  C36      1.0000 0.90340  0.30900  0.59300  Biso   1.000  C 
  C37      1.0000 0.90380  0.37340  0.58960  Biso   1.000  C 
  H30      1.0000 0.91690  0.38560  0.51260  Biso   1.000  H 
  H31      1.0000 0.86120  0.38700  0.60230  Biso   1.000  H 
  N16      1.0000 0.94570  0.39910  0.67660  Biso   1.000  N 
  C38      1.0000 0.93310  0.43120  0.76920  Biso   1.000  C 
  H32      1.0000 0.89260  0.44170  0.79210  Biso   1.000  H 
  C39      1.0000 0.02910  0.42330  0.75480  Biso   1.000  C 
  N17      1.0000 0.00860  0.39430  0.66420  Biso   1.000  N 
  H33      1.0000 0.07200  0.42750  0.76990  Biso   1.000  H 
  N18      1.0000 0.98510  0.44630  0.82430  Biso   1.000  N 
  C40      1.0000 0.86960  0.28060  0.68120  Biso   1.000  C 
  C41      1.0000 0.83230  0.30820  0.76560  Biso   1.000  C 
  H34      1.0000 0.83250  0.34750  0.76810  Biso   1.000  H 
  C42      1.0000 0.79670  0.28000  0.84210  Biso   1.000  C 
  H35      1.0000 0.77200  0.29960  0.89530  Biso   1.000  H 
  C43      1.0000 0.79670  0.22000  0.84210  Biso   1.000  C 
  H36      1.0000 0.77200  0.20040  0.89530  Biso   1.000  H 
  C44      1.0000 0.83230  0.19180  0.76560  Biso   1.000  C 
  H37      1.0000 0.83250  0.15250  0.76810  Biso   1.000  H 
  C45      1.0000 0.86960  0.21940  0.68120  Biso   1.000  C 
  H38      1.0000 0.07200  0.07250  0.76990  Biso   1.000  H 
  N19      1.0000 0.01490  0.94630  0.17570  Biso   1.000  N 
  C46      1.0000 0.06690  0.93120  0.23080  Biso   1.000  C 
  H39      1.0000 0.10740  0.94170  0.20790  Biso   1.000  H 
  N20      1.0000 0.05430  0.89910  0.32340  Biso   1.000  N 
  C47      1.0000 0.09620  0.87340  0.41040  Biso   1.000  C 
  H40      1.0000 0.13880  0.88700  0.39770  Biso   1.000  H 
  H41      1.0000 0.08310  0.88560  0.48740  Biso   1.000  H 
  C48      1.0000 0.09660  0.80900  0.40700  Biso   1.000  C 
  C49      1.0000 0.06550  0.77940  0.49000  Biso   1.000  C 
  H42      1.0000 0.05300  0.80600  0.55400  Biso   1.000  H 
  C50      1.0000 0.06550  0.72060  0.49000  Biso   1.000  C 
  H43      1.0000 0.05300  0.69400  0.55400  Biso   1.000  H 
  C51      1.0000 0.09660  0.69100  0.40700  Biso   1.000  C 
  C52      1.0000 0.09620  0.62660  0.41040  Biso   1.000  C 
  H44      1.0000 0.13880  0.61300  0.39770  Biso   1.000  H 
  H45      1.0000 0.08310  0.61440  0.48740  Biso   1.000  H 
  N21      1.0000 0.05430  0.60090  0.32340  Biso   1.000  N 
  C53      1.0000 0.06690  0.56880  0.23080  Biso   1.000  C 
  H46      1.0000 0.10740  0.55830  0.20790  Biso   1.000  H 
  N22      1.0000 0.01490  0.55370  0.17570  Biso   1.000  N 
  C54      1.0000 0.97090  0.57670  0.24520  Biso   1.000  C 
  N23      1.0000 0.99140  0.60570  0.33580  Biso   1.000  N 
  H47      1.0000 0.92800  0.57250  0.23010  Biso   1.000  H 
  C55      1.0000 0.13040  0.71940  0.31880  Biso   1.000  C 
  C56      1.0000 0.16770  0.69180  0.23440  Biso   1.000  C 
  C57      1.0000 0.20330  0.72000  0.15790  Biso   1.000  C 
  H48      1.0000 0.22800  0.70040  0.10470  Biso   1.000  H 
  C58      1.0000 0.20330  0.78000  0.15790  Biso   1.000  C 
  H49      1.0000 0.22800  0.79960  0.10470  Biso   1.000  H 
  C59      1.0000 0.16770  0.80820  0.23440  Biso   1.000  C 
  H50      1.0000 0.16750  0.84750  0.23190  Biso   1.000  H 
  C60      1.0000 0.13040  0.78060  0.31880  Biso   1.000  C 
  H51      1.0000 0.16750  0.65250  0.23190  Biso   1.000  H 
  C61      1.0000 0.97090  0.92330  0.24520  Biso   1.000  C 
  N24      1.0000 0.99140  0.89430  0.33580  Biso   1.000  N 
  H52      1.0000 0.92800  0.92750  0.23010  Biso   1.000  H 
  N25      1.0000 0.91320  0.94640  0.94960  Biso   1.000  N 
  C62      1.0000 0.90410  0.91080  0.85970  Biso   1.000  C 
  H53      1.0000 0.93190  0.90820  0.79740  Biso   1.000  H 
  C63      1.0000 0.86360  0.93630  0.01390  Biso   1.000  C 
  H54      1.0000 0.85480  0.95510  0.08330  Biso   1.000  H 
  N26      1.0000 0.82740  0.89660  0.96920  Biso   1.000  N 
  N27      1.0000 0.85250  0.88000  0.86730  Biso   1.000  N 
  C64      1.0000 0.76800  0.87340  0.01230  Biso   1.000  C 
  H55      1.0000 0.75970  0.88830  0.08950  Biso   1.000  H 
  C65      1.0000 0.76940  0.80950  0.01750  Biso   1.000  C 
  C66      1.0000 0.73340  0.78000  0.94080  Biso   1.000  C 
  C67      1.0000 0.73340  0.72000  0.94080  Biso   1.000  C 
  H56      1.0000 0.70830  0.70060  0.88750  Biso   1.000  H 
  C68      1.0000 0.76940  0.69050  0.01750  Biso   1.000  C 
  C69      1.0000 0.76800  0.62660  0.01230  Biso   1.000  C 
  H57      1.0000 0.75970  0.61170  0.08950  Biso   1.000  H 
  N28      1.0000 0.82740  0.60340  0.96920  Biso   1.000  N 
  N29      1.0000 0.85250  0.62000  0.86730  Biso   1.000  N 
  C70      1.0000 0.90410  0.58920  0.85970  Biso   1.000  C 
  H58      1.0000 0.93190  0.59180  0.79740  Biso   1.000  H 
  C71      1.0000 0.86360  0.56370  0.01390  Biso   1.000  C 
  H59      1.0000 0.85480  0.54490  0.08330  Biso   1.000  H 
  N30      1.0000 0.91320  0.55360  0.94960  Biso   1.000  N 
  H60      1.0000 0.73380  0.61460  0.96160  Biso   1.000  H 
  C72      1.0000 0.80600  0.71980  0.10290  Biso   1.000  C 
  C73      1.0000 0.84180  0.69140  0.18840  Biso   1.000  C 
  H61      1.0000 0.84230  0.65210  0.18910  Biso   1.000  H 
  C74      1.0000 0.87570  0.72060  0.27040  Biso   1.000  C 
  H62      1.0000 0.89880  0.70100  0.32630  Biso   1.000  H 
  C75      1.0000 0.87570  0.77940  0.27040  Biso   1.000  C 
  H63      1.0000 0.89880  0.79900  0.32630  Biso   1.000  H 
  C76      1.0000 0.84180  0.80860  0.18840  Biso   1.000  C 
  H64      1.0000 0.84230  0.84790  0.18910  Biso   1.000  H 
  C77      1.0000 0.80600  0.78020  0.10290  Biso   1.000  C 
  H65      1.0000 0.70830  0.79940  0.88750  Biso   1.000  H 
  H66      1.0000 0.73380  0.88540  0.96160  Biso   1.000  H 
  N31      1.0000 0.93010  0.05610  0.10920  Biso   1.000  N 
  C78      1.0000 0.87530  0.07510  0.07260  Biso   1.000  C 
  C79      1.0000 0.93040  0.07210  0.22140  Biso   1.000  C 
  H67      1.0000 0.96390  0.06450  0.27140  Biso   1.000  H 
  N32      1.0000 0.87900  0.09980  0.25470  Biso   1.000  N 
  N33      1.0000 0.84450  0.10095  0.15600  Biso   1.000  N 
  C80      1.0000 0.78190  0.12630  0.15030  Biso   1.000  C 
  H68      1.0000 0.76020  0.11210  0.08190  Biso   1.000  H 
  H69      1.0000 0.75790  0.11490  0.21820  Biso   1.000  H 
  C81      1.0000 0.78370  0.19040  0.14480  Biso   1.000  C 
  C82      1.0000 0.72540  0.21970  0.12930  Biso   1.000  C 
  C83      1.0000 0.66740  0.19110  0.11240  Biso   1.000  C 
  C84      1.0000 0.61230  0.22090  0.09680  Biso   1.000  C 
  H70      1.0000 0.57460  0.20150  0.08610  Biso   1.000  H 
  C85      1.0000 0.61230  0.27910  0.09680  Biso   1.000  C 
  H71      1.0000 0.57460  0.29850  0.08610  Biso   1.000  H 
  C86      1.0000 0.66740  0.30890  0.11240  Biso   1.000  C 
  H72      1.0000 0.66660  0.34820  0.11170  Biso   1.000  H 
  C87      1.0000 0.72540  0.28030  0.12930  Biso   1.000  C 
  C88      1.0000 0.78370  0.30960  0.14480  Biso   1.000  C 
  C89      1.0000 0.78190  0.37370  0.15030  Biso   1.000  C 
  H73      1.0000 0.75790  0.38510  0.21820  Biso   1.000  H 
  H74      1.0000 0.76020  0.38790  0.08190  Biso   1.000  H 
  N34      1.0000 0.84450  0.39905  0.15600  Biso   1.000  N 
  C90      1.0000 0.87530  0.42490  0.07260  Biso   1.000  C 
  C91      1.0000 0.93040  0.42790  0.22140  Biso   1.000  C 
  H75      1.0000 0.96390  0.43550  0.27140  Biso   1.000  H 
  N35      1.0000 0.93010  0.44390  0.10920  Biso   1.000  N 
  N36      1.0000 0.87900  0.40020  0.25470  Biso   1.000  N 
  H76      1.0000 0.86020  0.42920  0.99700  Biso   1.000  H 
  C92      1.0000 0.83810  0.27930  0.15400  Biso   1.000  C 
  H77      1.0000 0.87630  0.29850  0.16040  Biso   1.000  H 
  C93      1.0000 0.83810  0.22070  0.15400  Biso   1.000  C 
  H78      1.0000 0.87630  0.20150  0.16040  Biso   1.000  H 
  H79      1.0000 0.66660  0.15180  0.11170  Biso   1.000  H 
  H80      1.0000 0.86020  0.07080  0.99700  Biso   1.000  H 
  C94      1.0000 0.16190  0.77930  0.84600  Biso   1.000  C 
  H81      1.0000 0.12370  0.79850  0.83960  Biso   1.000  H 
  C95      1.0000 0.16190  0.72070  0.84600  Biso   1.000  C 
  H82      1.0000 0.12370  0.70150  0.83960  Biso   1.000  H 
  H83      1.0000 0.33340  0.65180  0.88830  Biso   1.000  H 
  C96      1.0000 0.12470  0.57510  0.92740  Biso   1.000  C 
  H84      1.0000 0.13980  0.57080  0.00300  Biso   1.000  H 
