data_image0
_cell_length_a       13.8593
_cell_length_b       9.8845
_cell_length_c       18.253
_cell_angle_alpha    90
_cell_angle_beta     112.263
_cell_angle_gamma    90

_symmetry_space_group_name_H-M    "P 1"
_symmetry_int_tables_number       1

loop_
  _symmetry_equiv_pos_as_xyz
  'x, y, z'

loop_
  _atom_site_label
  _atom_site_occupancy
  _atom_site_fract_x
  _atom_site_fract_y
  _atom_site_fract_z
  _atom_site_thermal_displace_type
  _atom_site_B_iso_or_equiv
  _atom_site_type_symbol
  Co1      1.0000 0.32922  0.05226  0.07512  Biso   1.000  Co
  Cl1      1.0000 0.21480  0.15609  0.11564  Biso   1.000  Cl
  O1       1.0000 0.40800  0.16220  0.02439  Biso   1.000  O 
  C1       1.0000 0.45210  0.26340  0.07050  Biso   1.000  C 
  O2       1.0000 0.46690  0.26070  0.14145  Biso   1.000  O 
  C2       1.0000 0.47720  0.38340  0.03490  Biso   1.000  C 
  C3       1.0000 0.52470  0.49440  0.07980  Biso   1.000  C 
  H1       1.0000 0.54260  0.49080  0.13430  Biso   1.000  H 
  C4       1.0000 0.54650  0.61030  0.04730  Biso   1.000  C 
  H2       1.0000 0.57670  0.68420  0.07940  Biso   1.000  H 
  C5       1.0000 0.52280  0.61660  0.96510  Biso   1.000  C 
  C6       1.0000 0.47530  0.50560  0.92020  Biso   1.000  C 
  H3       1.0000 0.45740  0.50920  0.86570  Biso   1.000  H 
  C7       1.0000 0.45350  0.38970  0.95270  Biso   1.000  C 
  H4       1.0000 0.42330  0.31580  0.92060  Biso   1.000  H 
  C8       1.0000 0.54790  0.73660  0.92950  Biso   1.000  C 
  O3       1.0000 0.59200  0.83780  0.97561  Biso   1.000  O 
  Co2      1.0000 0.67078  0.94774  0.92488  Biso   1.000  Co
  Cl2      1.0000 0.78520  0.84391  0.88436  Biso   1.000  Cl
  O4       1.0000 0.76590  0.05220  0.01727  Biso   1.000  O 
  C9       1.0000 0.72320  0.11310  0.05820  Biso   1.000  C 
  O5       1.0000 0.62980  0.12060  0.04241  Biso   1.000  O 
  Co3      1.0000 0.50000  0.00000  0.00000  Biso   1.000  Co
  O6       1.0000 0.37020  0.87940  0.95759  Biso   1.000  O 
  C10      1.0000 0.27680  0.88690  0.94180  Biso   1.000  C 
  O7       1.0000 0.23410  0.94780  0.98273  Biso   1.000  O 
  C11      1.0000 0.20480  0.81410  0.86890  Biso   1.000  C 
  C12      1.0000 0.09870  0.80520  0.85330  Biso   1.000  C 
  C13      1.0000 0.03510  0.73360  0.78620  Biso   1.000  C 
  C14      1.0000 0.07650  0.67690  0.73520  Biso   1.000  C 
  C15      1.0000 0.00680  0.60050  0.66360  Biso   1.000  C 
  O8       1.0000 0.91750  0.56750  0.65863  Biso   1.000  O 
  Co4      1.0000 0.82922  0.44774  0.57512  Biso   1.000  Co
  O9       1.0000 0.90800  0.33780  0.52439  Biso   1.000  O 
  C16      1.0000 0.95210  0.23660  0.57050  Biso   1.000  C 
  O10      1.0000 0.96690  0.23930  0.64145  Biso   1.000  O 
  C17      1.0000 0.97720  0.11660  0.53490  Biso   1.000  C 
  C18      1.0000 0.95350  0.11030  0.45270  Biso   1.000  C 
  H5       1.0000 0.92330  0.18420  0.42060  Biso   1.000  H 
  C19      1.0000 0.97530  0.99440  0.42020  Biso   1.000  C 
  H6       1.0000 0.95740  0.99080  0.36570  Biso   1.000  H 
  C20      1.0000 0.02280  0.88340  0.46510  Biso   1.000  C 
  C21      1.0000 0.04790  0.76340  0.42950  Biso   1.000  C 
  O11      1.0000 0.09200  0.66220  0.47561  Biso   1.000  O 
  Co5      1.0000 0.00000  0.50000  0.50000  Biso   1.000  Co
  O12      1.0000 0.95310  0.42700  0.38700  Biso   1.000  O 
  C22      1.0000 0.99320  0.39950  0.33640  Biso   1.000  C 
  O13      1.0000 0.08250  0.43250  0.34137  Biso   1.000  O 
  Co6      1.0000 0.17078  0.55226  0.42488  Biso   1.000  Co
  O14      1.0000 0.26590  0.44780  0.51727  Biso   1.000  O 
  C23      1.0000 0.22320  0.38690  0.55820  Biso   1.000  C 
  O15      1.0000 0.12980  0.37940  0.54241  Biso   1.000  O 
  C24      1.0000 0.29520  0.31410  0.63110  Biso   1.000  C 
  C25      1.0000 0.25470  0.25750  0.68110  Biso   1.000  C 
  H7       1.0000 0.18370  0.26430  0.67010  Biso   1.000  H 
  C26      1.0000 0.31870  0.19000  0.74810  Biso   1.000  C 
  H8       1.0000 0.29040  0.15280  0.78230  Biso   1.000  H 
  C27      1.0000 0.42350  0.17690  0.76480  Biso   1.000  C 
  C28      1.0000 0.49320  0.10050  0.83640  Biso   1.000  C 
  O16      1.0000 0.58250  0.06750  0.84137  Biso   1.000  O 
  O17      1.0000 0.45310  0.07300  0.88700  Biso   1.000  O 
  C29      1.0000 0.46490  0.23360  0.71380  Biso   1.000  C 
  H9       1.0000 0.53560  0.22400  0.72420  Biso   1.000  H 
  C30      1.0000 0.40130  0.30520  0.64670  Biso   1.000  C 
  H10      1.0000 0.42930  0.34600  0.61330  Biso   1.000  H 
  Cl3      1.0000 0.28520  0.65609  0.38436  Biso   1.000  Cl
  C31      1.0000 0.92350  0.32310  0.26480  Biso   1.000  C 
  C32      1.0000 0.81870  0.31000  0.24810  Biso   1.000  C 
  H11      1.0000 0.79040  0.34720  0.28230  Biso   1.000  H 
  C33      1.0000 0.75470  0.24250  0.18110  Biso   1.000  C 
  H12      1.0000 0.68370  0.23570  0.17010  Biso   1.000  H 
  C34      1.0000 0.79520  0.18590  0.13110  Biso   1.000  C 
  C35      1.0000 0.90130  0.19480  0.14670  Biso   1.000  C 
  H13      1.0000 0.92930  0.15400  0.11330  Biso   1.000  H 
  C36      1.0000 0.96490  0.26640  0.21380  Biso   1.000  C 
  H14      1.0000 0.03560  0.27600  0.22420  Biso   1.000  H 
  O18      1.0000 0.87020  0.62060  0.45759  Biso   1.000  O 
  C37      1.0000 0.77680  0.61310  0.44180  Biso   1.000  C 
  O19      1.0000 0.73410  0.55220  0.48273  Biso   1.000  O 
  C38      1.0000 0.70480  0.68590  0.36890  Biso   1.000  C 
  C39      1.0000 0.59870  0.69480  0.35330  Biso   1.000  C 
  C40      1.0000 0.53510  0.76640  0.28620  Biso   1.000  C 
  C41      1.0000 0.57650  0.82310  0.23520  Biso   1.000  C 
  C42      1.0000 0.50680  0.89950  0.16360  Biso   1.000  C 
  O20      1.0000 0.41750  0.93250  0.15863  Biso   1.000  O 
  O21      1.0000 0.54690  0.92700  0.11300  Biso   1.000  O 
  C43      1.0000 0.68130  0.81000  0.25190  Biso   1.000  C 
  C44      1.0000 0.74530  0.74250  0.31890  Biso   1.000  C 
  H15      1.0000 0.81630  0.73570  0.32990  Biso   1.000  H 
  H16      1.0000 0.70960  0.84720  0.21770  Biso   1.000  H 
  H17      1.0000 0.46440  0.77600  0.27580  Biso   1.000  H 
  H18      1.0000 0.57070  0.65400  0.38670  Biso   1.000  H 
  O22      1.0000 0.04690  0.57300  0.61300  Biso   1.000  O 
  O23      1.0000 0.03310  0.76070  0.35855  Biso   1.000  O 
  C45      1.0000 0.04650  0.88970  0.54730  Biso   1.000  C 
  H19      1.0000 0.07670  0.81580  0.57940  Biso   1.000  H 
  C46      1.0000 0.02470  0.00560  0.57980  Biso   1.000  C 
  H20      1.0000 0.04260  0.00920  0.63430  Biso   1.000  H 
  Cl4      1.0000 0.71480  0.34391  0.61564  Biso   1.000  Cl
  C47      1.0000 0.18130  0.69000  0.75190  Biso   1.000  C 
  H21      1.0000 0.20960  0.65280  0.71770  Biso   1.000  H 
  C48      1.0000 0.24530  0.75750  0.81890  Biso   1.000  C 
  H22      1.0000 0.31630  0.76430  0.82990  Biso   1.000  H 
  H23      1.0000 0.96440  0.72400  0.77580  Biso   1.000  H 
  H24      1.0000 0.07070  0.84600  0.88670  Biso   1.000  H 
  O24      1.0000 0.53310  0.73930  0.85855  Biso   1.000  O 
