data_image0
_cell_length_a       22.92
_cell_length_b       22.92
_cell_length_c       22.27
_cell_angle_alpha    90
_cell_angle_beta     90
_cell_angle_gamma    120

_symmetry_space_group_name_H-M    "P 1"
_symmetry_int_tables_number       1

loop_
  _symmetry_equiv_pos_as_xyz
  'x, y, z'

loop_
  _atom_site_label
  _atom_site_occupancy
  _atom_site_fract_x
  _atom_site_fract_y
  _atom_site_fract_z
  _atom_site_thermal_displace_type
  _atom_site_B_iso_or_equiv
  _atom_site_type_symbol
  Cu1      1.0000 0.08317  0.21976  0.39233  Biso   1.000  Cu
  N1       1.0000 0.00990  0.20340  0.34363  Biso   1.000  N 
  C1       1.0000 0.96520  0.22290  0.35603  Biso   1.000  C 
  C2       1.0000 0.90970  0.18840  0.31863  Biso   1.000  C 
  C3       1.0000 0.85660  0.20120  0.32163  Biso   1.000  C 
  C4       1.0000 0.85890  0.24850  0.36213  Biso   1.000  C 
  H1       1.0000 0.82340  0.25710  0.36413  Biso   1.000  H 
  C5       1.0000 0.91440  0.28300  0.39953  Biso   1.000  C 
  H2       1.0000 0.91610  0.31470  0.42663  Biso   1.000  H 
  C6       1.0000 0.96760  0.27020  0.39653  Biso   1.000  C 
  H3       1.0000 0.00480  0.29330  0.42153  Biso   1.000  H 
  H4       1.0000 0.81950  0.17820  0.29663  Biso   1.000  H 
  N2       1.0000 0.92160  0.14690  0.28353  Biso   1.000  N 
  C7       1.0000 0.98160  0.15760  0.29903  Biso   1.000  C 
  C8       1.0000 0.01550  0.12180  0.27373  Biso   1.000  C 
  C9       1.0000 0.98000  0.05050  0.27023  Biso   1.000  C 
  H5       1.0000 0.93520  0.02660  0.28263  Biso   1.000  H 
  C10      1.0000 0.00890  0.01780  0.25003  Biso   1.000  C 
  H6       1.0000 0.98540  0.97090  0.25003  Biso   1.000  H 
  C11      1.0000 0.07050  0.05050  0.22977  Biso   1.000  C 
  H7       1.0000 0.09140  0.02660  0.21737  Biso   1.000  H 
  C12      1.0000 0.10630  0.12180  0.22627  Biso   1.000  C 
  C13      1.0000 0.17600  0.15760  0.20097  Biso   1.000  C 
  N3       1.0000 0.22530  0.14690  0.21647  Biso   1.000  N 
  C14      1.0000 0.27870  0.18840  0.18137  Biso   1.000  C 
  C15      1.0000 0.34460  0.20120  0.17837  Biso   1.000  C 
  H8       1.0000 0.35870  0.17820  0.20337  Biso   1.000  H 
  C16      1.0000 0.38960  0.24850  0.13787  Biso   1.000  C 
  C17      1.0000 0.36860  0.28300  0.10047  Biso   1.000  C 
  H9       1.0000 0.39860  0.31470  0.07337  Biso   1.000  H 
  C18      1.0000 0.30260  0.27020  0.10347  Biso   1.000  C 
  H10      1.0000 0.28850  0.29330  0.07847  Biso   1.000  H 
  C19      1.0000 0.25770  0.22290  0.14397  Biso   1.000  C 
  N4       1.0000 0.19350  0.20340  0.15637  Biso   1.000  N 
  Cu2      1.0000 0.13659  0.21976  0.10767  Biso   1.000  Cu
  N5       1.0000 0.07840  0.22530  0.04980  Biso   1.000  N 
  C20      1.0000 0.01840  0.17600  0.03430  Biso   1.000  C 
  C21      1.0000 0.98450  0.10630  0.05960  Biso   1.000  C 
  C22      1.0000 0.92370  0.07630  0.08337  Biso   1.000  C 
  H11      1.0000 0.90030  0.09970  0.08337  Biso   1.000  H 
  C23      1.0000 0.89370  0.01550  0.10707  Biso   1.000  C 
  C24      1.0000 0.92950  0.98000  0.10357  Biso   1.000  C 
  H12      1.0000 0.90860  0.93520  0.11597  Biso   1.000  H 
  C25      1.0000 0.99110  0.00890  0.08337  Biso   1.000  C 
  H13      1.0000 0.01450  0.98540  0.08337  Biso   1.000  H 
  C26      1.0000 0.02000  0.07050  0.06310  Biso   1.000  C 
  H14      1.0000 0.06480  0.09140  0.05070  Biso   1.000  H 
  C27      1.0000 0.82400  0.98160  0.13237  Biso   1.000  C 
  N6       1.0000 0.77470  0.92160  0.11687  Biso   1.000  N 
  C28      1.0000 0.72130  0.90970  0.15197  Biso   1.000  C 
  C29      1.0000 0.65540  0.85660  0.15497  Biso   1.000  C 
  H15      1.0000 0.64130  0.81950  0.12997  Biso   1.000  H 
  C30      1.0000 0.61040  0.85890  0.19547  Biso   1.000  C 
  H16      1.0000 0.56630  0.82340  0.19747  Biso   1.000  H 
  C31      1.0000 0.63140  0.91440  0.23287  Biso   1.000  C 
  H17      1.0000 0.60140  0.91610  0.25997  Biso   1.000  H 
  C32      1.0000 0.69740  0.96760  0.22987  Biso   1.000  C 
  C33      1.0000 0.74230  0.96520  0.18937  Biso   1.000  C 
  N7       1.0000 0.80650  0.00990  0.17697  Biso   1.000  N 
  Cu3      1.0000 0.86341  0.08317  0.22566  Biso   1.000  Cu
  H18      1.0000 0.71150  0.00480  0.25487  Biso   1.000  H 
  Cu4      1.0000 0.78024  0.86341  0.05900  Biso   1.000  Cu
  N8       1.0000 0.79660  0.80650  0.01030  Biso   1.000  N 
  C34      1.0000 0.77710  0.74230  0.02270  Biso   1.000  C 
  C35      1.0000 0.72980  0.69740  0.06320  Biso   1.000  C 
  H19      1.0000 0.70670  0.71150  0.08820  Biso   1.000  H 
  C36      1.0000 0.71700  0.63140  0.06620  Biso   1.000  C 
  H20      1.0000 0.68530  0.60140  0.09330  Biso   1.000  H 
  C37      1.0000 0.75150  0.61040  0.02880  Biso   1.000  C 
  H21      1.0000 0.74290  0.56630  0.03080  Biso   1.000  H 
  C38      1.0000 0.79880  0.65540  0.98830  Biso   1.000  C 
  H22      1.0000 0.82180  0.64130  0.96330  Biso   1.000  H 
  C39      1.0000 0.81160  0.72130  0.98530  Biso   1.000  C 
  N9       1.0000 0.85310  0.77470  0.95020  Biso   1.000  N 
  C40      1.0000 0.84240  0.82400  0.96570  Biso   1.000  C 
  C41      1.0000 0.87820  0.89370  0.94040  Biso   1.000  C 
  C42      1.0000 0.94950  0.92950  0.93690  Biso   1.000  C 
  C43      1.0000 0.98220  0.99110  0.91670  Biso   1.000  C 
  C44      1.0000 0.94950  0.02000  0.89643  Biso   1.000  C 
  H23      1.0000 0.97340  0.06480  0.88403  Biso   1.000  H 
  C45      1.0000 0.87820  0.98450  0.89293  Biso   1.000  C 
  C46      1.0000 0.84740  0.92370  0.91670  Biso   1.000  C 
  H24      1.0000 0.80060  0.90030  0.91670  Biso   1.000  H 
  C47      1.0000 0.84240  0.01840  0.86763  Biso   1.000  C 
  N10      1.0000 0.79660  0.99010  0.82303  Biso   1.000  N 
  Cu5      1.0000 0.78024  0.91683  0.77434  Biso   1.000  Cu
  N11      1.0000 0.77470  0.85310  0.71647  Biso   1.000  N 
  C48      1.0000 0.72130  0.81160  0.68137  Biso   1.000  C 
  C49      1.0000 0.65540  0.79880  0.67837  Biso   1.000  C 
  H25      1.0000 0.64130  0.82180  0.70337  Biso   1.000  H 
  C50      1.0000 0.61040  0.75150  0.63787  Biso   1.000  C 
  H26      1.0000 0.56630  0.74290  0.63587  Biso   1.000  H 
  C51      1.0000 0.63140  0.71700  0.60047  Biso   1.000  C 
  H27      1.0000 0.60140  0.68530  0.57337  Biso   1.000  H 
  C52      1.0000 0.69740  0.72980  0.60347  Biso   1.000  C 
  H28      1.0000 0.71150  0.70670  0.57847  Biso   1.000  H 
  C53      1.0000 0.74230  0.77710  0.64397  Biso   1.000  C 
  N12      1.0000 0.80650  0.79660  0.65637  Biso   1.000  N 
  C54      1.0000 0.82400  0.84240  0.70097  Biso   1.000  C 
  C55      1.0000 0.89370  0.87820  0.72627  Biso   1.000  C 
  C56      1.0000 0.92950  0.94950  0.72977  Biso   1.000  C 
  H29      1.0000 0.90860  0.97340  0.71737  Biso   1.000  H 
  C57      1.0000 0.99110  0.98220  0.75003  Biso   1.000  C 
  C58      1.0000 0.02000  0.94950  0.77023  Biso   1.000  C 
  H30      1.0000 0.06480  0.97340  0.78263  Biso   1.000  H 
  C59      1.0000 0.98450  0.87820  0.77373  Biso   1.000  C 
  C60      1.0000 0.92370  0.84740  0.75003  Biso   1.000  C 
  H31      1.0000 0.90030  0.80060  0.75003  Biso   1.000  H 
  C61      1.0000 0.01840  0.84240  0.79903  Biso   1.000  C 
  N13      1.0000 0.99010  0.79660  0.84363  Biso   1.000  N 
  Cu6      1.0000 0.91683  0.78024  0.89233  Biso   1.000  Cu
  C62      1.0000 0.03480  0.77710  0.85603  Biso   1.000  C 
  C63      1.0000 0.03240  0.72980  0.89653  Biso   1.000  C 
  H32      1.0000 0.99520  0.70670  0.92153  Biso   1.000  H 
  C64      1.0000 0.08560  0.71700  0.89953  Biso   1.000  C 
  H33      1.0000 0.08390  0.68530  0.92663  Biso   1.000  H 
  C65      1.0000 0.14110  0.75150  0.86213  Biso   1.000  C 
  H34      1.0000 0.17660  0.74290  0.86413  Biso   1.000  H 
  C66      1.0000 0.14340  0.79880  0.82163  Biso   1.000  C 
  H35      1.0000 0.18050  0.82180  0.79663  Biso   1.000  H 
  C67      1.0000 0.09030  0.81160  0.81863  Biso   1.000  C 
  N14      1.0000 0.07840  0.85310  0.78353  Biso   1.000  N 
  Cu7      1.0000 0.13659  0.91683  0.72566  Biso   1.000  Cu
  N15      1.0000 0.19350  0.99010  0.67697  Biso   1.000  N 
  C68      1.0000 0.17600  0.01840  0.63237  Biso   1.000  C 
  C69      1.0000 0.10630  0.98450  0.60707  Biso   1.000  C 
  C70      1.0000 0.07630  0.92370  0.58337  Biso   1.000  C 
  C71      1.0000 0.01550  0.89370  0.55960  Biso   1.000  C 
  C72      1.0000 0.98000  0.92950  0.56310  Biso   1.000  C 
  H36      1.0000 0.93520  0.90860  0.55070  Biso   1.000  H 
  C73      1.0000 0.00890  0.99110  0.58337  Biso   1.000  C 
  C74      1.0000 0.07050  0.02000  0.60357  Biso   1.000  C 
  H37      1.0000 0.09140  0.06480  0.61597  Biso   1.000  H 
  H38      1.0000 0.98550  0.01460  0.58337  Biso   1.000  H 
  C75      1.0000 0.98160  0.82400  0.53430  Biso   1.000  C 
  N16      1.0000 0.92160  0.77470  0.54980  Biso   1.000  N 
  C76      1.0000 0.90970  0.72130  0.51470  Biso   1.000  C 
  C77      1.0000 0.85660  0.65540  0.51170  Biso   1.000  C 
  H39      1.0000 0.81950  0.64130  0.53670  Biso   1.000  H 
  C78      1.0000 0.85890  0.61040  0.47120  Biso   1.000  C 
  C79      1.0000 0.91440  0.63140  0.43380  Biso   1.000  C 
  H40      1.0000 0.91610  0.60140  0.40670  Biso   1.000  H 
  C80      1.0000 0.96760  0.69740  0.43680  Biso   1.000  C 
  C81      1.0000 0.96520  0.74230  0.47730  Biso   1.000  C 
  N17      1.0000 0.00990  0.80650  0.48970  Biso   1.000  N 
  Cu8      1.0000 0.08317  0.86341  0.44100  Biso   1.000  Cu
  N18      1.0000 0.14690  0.92160  0.38313  Biso   1.000  N 
  C82      1.0000 0.18840  0.90970  0.34803  Biso   1.000  C 
  C83      1.0000 0.20120  0.85660  0.34503  Biso   1.000  C 
  H41      1.0000 0.17820  0.81950  0.37003  Biso   1.000  H 
  C84      1.0000 0.24850  0.85890  0.30453  Biso   1.000  C 
  C85      1.0000 0.28300  0.91440  0.26713  Biso   1.000  C 
  C86      1.0000 0.27020  0.96760  0.27013  Biso   1.000  C 
  C87      1.0000 0.22290  0.96520  0.31063  Biso   1.000  C 
  N19      1.0000 0.20340  0.00990  0.32303  Biso   1.000  N 
  C88      1.0000 0.15760  0.98160  0.36763  Biso   1.000  C 
  C89      1.0000 0.12180  0.01550  0.39293  Biso   1.000  C 
  C90      1.0000 0.05050  0.98000  0.39643  Biso   1.000  C 
  H42      1.0000 0.02660  0.93520  0.38403  Biso   1.000  H 
  C91      1.0000 0.01780  0.00890  0.41670  Biso   1.000  C 
  H43      1.0000 0.97090  0.98550  0.41670  Biso   1.000  H 
  C92      1.0000 0.05050  0.07050  0.43690  Biso   1.000  C 
  H44      1.0000 0.02660  0.09140  0.44930  Biso   1.000  H 
  C93      1.0000 0.12180  0.10630  0.44040  Biso   1.000  C 
  C94      1.0000 0.15760  0.17600  0.46570  Biso   1.000  C 
  N20      1.0000 0.14690  0.22530  0.45020  Biso   1.000  N 
  C95      1.0000 0.18840  0.27870  0.48530  Biso   1.000  C 
  C96      1.0000 0.20120  0.34460  0.48830  Biso   1.000  C 
  C97      1.0000 0.24850  0.38960  0.52880  Biso   1.000  C 
  H45      1.0000 0.25710  0.43370  0.53080  Biso   1.000  H 
  C98      1.0000 0.28300  0.36860  0.56620  Biso   1.000  C 
  C99      1.0000 0.27020  0.30260  0.56320  Biso   1.000  C 
  H46      1.0000 0.29330  0.28850  0.58820  Biso   1.000  H 
  C100     1.0000 0.22290  0.25770  0.52270  Biso   1.000  C 
  N21      1.0000 0.20340  0.19350  0.51030  Biso   1.000  N 
  Cu9      1.0000 0.21976  0.13659  0.55900  Biso   1.000  Cu
  N22      1.0000 0.22530  0.07840  0.61687  Biso   1.000  N 
  C101     1.0000 0.27870  0.09030  0.65197  Biso   1.000  C 
  C102     1.0000 0.34460  0.14340  0.65497  Biso   1.000  C 
  C103     1.0000 0.38960  0.14110  0.69547  Biso   1.000  C 
  H47      1.0000 0.43370  0.17660  0.69747  Biso   1.000  H 
  C104     1.0000 0.36860  0.08560  0.73287  Biso   1.000  C 
  C105     1.0000 0.30260  0.03240  0.72987  Biso   1.000  C 
  H48      1.0000 0.28850  0.99520  0.75487  Biso   1.000  H 
  C106     1.0000 0.25770  0.03480  0.68937  Biso   1.000  C 
  H49      1.0000 0.39860  0.08390  0.75997  Biso   1.000  H 
  H50      1.0000 0.35870  0.18050  0.62997  Biso   1.000  H 
  H51      1.0000 0.31470  0.39860  0.59330  Biso   1.000  H 
  H52      1.0000 0.17820  0.35870  0.46330  Biso   1.000  H 
  C107     1.0000 0.15260  0.07630  0.41670  Biso   1.000  C 
  H53      1.0000 0.19940  0.09970  0.41670  Biso   1.000  H 
  Cu10     1.0000 0.21976  0.08317  0.27434  Biso   1.000  Cu
  H54      1.0000 0.29330  0.00480  0.24513  Biso   1.000  H 
  H55      1.0000 0.31470  0.91610  0.24003  Biso   1.000  H 
  H56      1.0000 0.25710  0.82340  0.30253  Biso   1.000  H 
  H57      1.0000 0.00480  0.71150  0.41180  Biso   1.000  H 
  H58      1.0000 0.82340  0.56630  0.46920  Biso   1.000  H 
  Cu11     1.0000 0.86341  0.78024  0.60767  Biso   1.000  Cu
  H59      1.0000 0.09970  0.90030  0.58337  Biso   1.000  H 
  H60      1.0000 0.01460  0.02910  0.75003  Biso   1.000  H 
  C108     1.0000 0.77710  0.03480  0.81063  Biso   1.000  C 
  C109     1.0000 0.72980  0.03240  0.77013  Biso   1.000  C 
  H61      1.0000 0.70670  0.99520  0.74513  Biso   1.000  H 
  C110     1.0000 0.71700  0.08560  0.76713  Biso   1.000  C 
  H62      1.0000 0.68530  0.08390  0.74003  Biso   1.000  H 
  C111     1.0000 0.75150  0.14110  0.80453  Biso   1.000  C 
  H63      1.0000 0.74290  0.17660  0.80253  Biso   1.000  H 
  C112     1.0000 0.79880  0.14340  0.84503  Biso   1.000  C 
  H64      1.0000 0.82180  0.18050  0.87003  Biso   1.000  H 
  C113     1.0000 0.81160  0.09030  0.84803  Biso   1.000  C 
  N23      1.0000 0.85310  0.07840  0.88313  Biso   1.000  N 
  Cu12     1.0000 0.91683  0.13659  0.94100  Biso   1.000  Cu
  N24      1.0000 0.99010  0.19350  0.98970  Biso   1.000  N 
  C114     1.0000 0.03480  0.25770  0.97730  Biso   1.000  C 
  C115     1.0000 0.03240  0.30260  0.93680  Biso   1.000  C 
  H65      1.0000 0.99520  0.28850  0.91180  Biso   1.000  H 
  C116     1.0000 0.08560  0.36860  0.93380  Biso   1.000  C 
  H66      1.0000 0.08390  0.39860  0.90670  Biso   1.000  H 
  C117     1.0000 0.14110  0.38960  0.97120  Biso   1.000  C 
  H67      1.0000 0.17660  0.43370  0.96920  Biso   1.000  H 
  C118     1.0000 0.14340  0.34460  0.01170  Biso   1.000  C 
  H68      1.0000 0.18050  0.35870  0.03670  Biso   1.000  H 
  C119     1.0000 0.09030  0.27870  0.01470  Biso   1.000  C 
  H69      1.0000 0.02910  0.01450  0.91670  Biso   1.000  H 
  H70      1.0000 0.97340  0.90860  0.94930  Biso   1.000  H 
  H71      1.0000 0.43370  0.25710  0.13587  Biso   1.000  H 
  C120     1.0000 0.07630  0.15260  0.25003  Biso   1.000  C 
  H72      1.0000 0.09970  0.19940  0.25003  Biso   1.000  H 
