data_image0
_cell_length_a       28.3534
_cell_length_b       28.3534
_cell_length_c       13.9544
_cell_angle_alpha    90
_cell_angle_beta     90
_cell_angle_gamma    120

_symmetry_space_group_name_H-M    "P 1"
_symmetry_int_tables_number       1

loop_
  _symmetry_equiv_pos_as_xyz
  'x, y, z'

loop_
  _atom_site_label
  _atom_site_occupancy
  _atom_site_fract_x
  _atom_site_fract_y
  _atom_site_fract_z
  _atom_site_thermal_displace_type
  _atom_site_B_iso_or_equiv
  _atom_site_type_symbol
  Ag1      1.0000 0.26961  0.19888  0.39475  Biso   1.000  Ag
  N1       1.0000 0.20690  0.22400  0.47740  Biso   1.000  N 
  C1       1.0000 0.20990  0.23970  0.56820  Biso   1.000  C 
  H1       1.0000 0.23770  0.24120  0.60830  Biso   1.000  H 
  C2       1.0000 0.17330  0.25370  0.60520  Biso   1.000  C 
  H2       1.0000 0.17470  0.26200  0.67150  Biso   1.000  H 
  N2       1.0000 0.13740  0.25600  0.55150  Biso   1.000  N 
  C3       1.0000 0.13450  0.24250  0.46000  Biso   1.000  C 
  H3       1.0000 0.10820  0.24420  0.42040  Biso   1.000  H 
  C4       1.0000 0.16840  0.22590  0.42010  Biso   1.000  C 
  C5       1.0000 0.16670  0.21030  0.31880  Biso   1.000  C 
  H4       1.0000 0.13380  0.20710  0.28820  Biso   1.000  H 
  H5       1.0000 0.16400  0.17410  0.31570  Biso   1.000  H 
  C6       1.0000 0.21650  0.25100  0.26360  Biso   1.000  C 
  C7       1.0000 0.21690  0.29030  0.20640  Biso   1.000  C 
  H6       1.0000 0.18500  0.29320  0.20350  Biso   1.000  H 
  N3       1.0000 0.25950  0.32460  0.15490  Biso   1.000  N 
  C8       1.0000 0.30420  0.32400  0.16970  Biso   1.000  C 
  H7       1.0000 0.33670  0.35100  0.13990  Biso   1.000  H 
  C9       1.0000 0.30680  0.28470  0.22860  Biso   1.000  C 
  H8       1.0000 0.33980  0.28390  0.23470  Biso   1.000  H 
  N4       1.0000 0.26350  0.24980  0.27380  Biso   1.000  N 
  Ag2      1.0000 0.26260  0.39706  0.06142  Biso   1.000  Ag
  N5       1.0000 0.19593  0.41067  0.11517  Biso   1.000  N 
  C10      1.0000 0.19883  0.42417  0.20667  Biso   1.000  C 
  H9       1.0000 0.22513  0.42247  0.24627  Biso   1.000  H 
  C11      1.0000 0.16493  0.44077  0.24657  Biso   1.000  C 
  N6       1.0000 0.12643  0.44267  0.18927  Biso   1.000  N 
  C12      1.0000 0.12343  0.42697  0.09847  Biso   1.000  C 
  H10      1.0000 0.09563  0.42547  0.05837  Biso   1.000  H 
  C13      1.0000 0.16003  0.41297  0.06147  Biso   1.000  C 
  H11      1.0000 0.15863  0.40467  0.99517  Biso   1.000  H 
  Ag3      1.0000 0.06372  0.46779  0.27192  Biso   1.000  Ag
  N7       1.0000 0.07733  0.54807  0.21817  Biso   1.000  N 
  C14      1.0000 0.09083  0.55867  0.12667  Biso   1.000  C 
  H12      1.0000 0.08913  0.53067  0.08707  Biso   1.000  H 
  C15      1.0000 0.10743  0.60917  0.08677  Biso   1.000  C 
  N8       1.0000 0.10933  0.64957  0.14407  Biso   1.000  N 
  C16      1.0000 0.09363  0.63687  0.23487  Biso   1.000  C 
  H13      1.0000 0.09213  0.66317  0.27497  Biso   1.000  H 
  C17      1.0000 0.07963  0.58627  0.27187  Biso   1.000  C 
  H14      1.0000 0.07133  0.57937  0.33817  Biso   1.000  H 
  Ag4      1.0000 0.13445  0.73740  0.06142  Biso   1.000  Ag
  N9       1.0000 0.06510  0.74050  0.15490  Biso   1.000  N 
  C18      1.0000 0.01980  0.69580  0.16970  Biso   1.000  C 
  H15      1.0000 0.01430  0.66330  0.13990  Biso   1.000  H 
  C19      1.0000 0.97790  0.69320  0.22860  Biso   1.000  C 
  H16      1.0000 0.94410  0.66020  0.23470  Biso   1.000  H 
  N10      1.0000 0.98630  0.73650  0.27380  Biso   1.000  N 
  C20      1.0000 0.03450  0.78350  0.26360  Biso   1.000  C 
  C21      1.0000 0.07340  0.78310  0.20640  Biso   1.000  C 
  H17      1.0000 0.10820  0.81500  0.20350  Biso   1.000  H 
  C22      1.0000 0.04360  0.83330  0.31880  Biso   1.000  C 
  H18      1.0000 0.01010  0.83600  0.31570  Biso   1.000  H 
  H19      1.0000 0.07330  0.86620  0.28820  Biso   1.000  H 
  C23      1.0000 0.05750  0.83160  0.42010  Biso   1.000  C 
  N11      1.0000 0.01710  0.79310  0.47740  Biso   1.000  N 
  C24      1.0000 0.02980  0.79010  0.56820  Biso   1.000  C 
  H20      1.0000 0.00350  0.76230  0.60830  Biso   1.000  H 
  C25      1.0000 0.08040  0.82670  0.60520  Biso   1.000  C 
  H21      1.0000 0.08730  0.82530  0.67150  Biso   1.000  H 
  N12      1.0000 0.11860  0.86260  0.55150  Biso   1.000  N 
  C26      1.0000 0.10800  0.86550  0.46000  Biso   1.000  C 
  H22      1.0000 0.13600  0.89180  0.42040  Biso   1.000  H 
  Ag5      1.0000 0.19888  0.92927  0.60525  Biso   1.000  Ag
  N13      1.0000 0.26823  0.92617  0.51177  Biso   1.000  N 
  C27      1.0000 0.31353  0.97087  0.49697  Biso   1.000  C 
  H23      1.0000 0.31903  0.00337  0.52677  Biso   1.000  H 
  C28      1.0000 0.35543  0.97347  0.43807  Biso   1.000  C 
  H24      1.0000 0.38923  0.00647  0.43197  Biso   1.000  H 
  N14      1.0000 0.34703  0.93017  0.39287  Biso   1.000  N 
  Ag6      1.0000 0.40406  0.93628  0.27192  Biso   1.000  Ag
  N15      1.0000 0.31623  0.87357  0.18927  Biso   1.000  N 
  C29      1.0000 0.30353  0.87657  0.09847  Biso   1.000  C 
  H25      1.0000 0.32983  0.90437  0.05837  Biso   1.000  H 
  C30      1.0000 0.25293  0.83997  0.06147  Biso   1.000  C 
  N16      1.0000 0.21473  0.80407  0.11517  Biso   1.000  N 
  C31      1.0000 0.22533  0.80117  0.20667  Biso   1.000  C 
  H26      1.0000 0.19733  0.77487  0.24627  Biso   1.000  H 
  C32      1.0000 0.27583  0.83507  0.24657  Biso   1.000  C 
  C33      1.0000 0.28973  0.83337  0.34787  Biso   1.000  C 
  H27      1.0000 0.26003  0.80047  0.37847  Biso   1.000  H 
  H28      1.0000 0.32323  0.83067  0.35097  Biso   1.000  H 
  C34      1.0000 0.29883  0.88317  0.40307  Biso   1.000  C 
  C35      1.0000 0.25993  0.88357  0.46027  Biso   1.000  C 
  H29      1.0000 0.22513  0.85167  0.46317  Biso   1.000  H 
  H30      1.0000 0.24603  0.84137  0.99517  Biso   1.000  H 
  N17      1.0000 0.47073  0.92267  0.21817  Biso   1.000  N 
  C36      1.0000 0.46783  0.90917  0.12667  Biso   1.000  C 
  H31      1.0000 0.44153  0.91087  0.08707  Biso   1.000  H 
  C37      1.0000 0.50173  0.89257  0.08677  Biso   1.000  C 
  N18      1.0000 0.54023  0.89067  0.14407  Biso   1.000  N 
  C38      1.0000 0.54323  0.90637  0.23487  Biso   1.000  C 
  H32      1.0000 0.57103  0.90787  0.27497  Biso   1.000  H 
  C39      1.0000 0.50663  0.92037  0.27187  Biso   1.000  C 
  H33      1.0000 0.50803  0.92867  0.33817  Biso   1.000  H 
  Ag7      1.0000 0.60294  0.86555  0.06142  Biso   1.000  Ag
  N19      1.0000 0.58933  0.78527  0.11517  Biso   1.000  N 
  C40      1.0000 0.58703  0.74707  0.06147  Biso   1.000  C 
  C41      1.0000 0.57303  0.69647  0.09847  Biso   1.000  C 
  H34      1.0000 0.57453  0.67017  0.05837  Biso   1.000  H 
  N20      1.0000 0.55733  0.68377  0.18927  Biso   1.000  N 
  Ag8      1.0000 0.53221  0.59594  0.27192  Biso   1.000  Ag
  N21      1.0000 0.45193  0.52927  0.21817  Biso   1.000  N 
  C42      1.0000 0.44133  0.53217  0.12667  Biso   1.000  C 
  H35      1.0000 0.46933  0.55847  0.08707  Biso   1.000  H 
  C43      1.0000 0.39083  0.49827  0.08677  Biso   1.000  C 
  N22      1.0000 0.35043  0.45977  0.14407  Biso   1.000  N 
  C44      1.0000 0.36313  0.45677  0.23487  Biso   1.000  C 
  H36      1.0000 0.33683  0.42897  0.27497  Biso   1.000  H 
  C45      1.0000 0.41373  0.49337  0.27187  Biso   1.000  C 
  H37      1.0000 0.42063  0.49197  0.33817  Biso   1.000  H 
  C46      1.0000 0.37693  0.49997  0.98547  Biso   1.000  C 
  H38      1.0000 0.34343  0.50267  0.98237  Biso   1.000  H 
  H39      1.0000 0.40663  0.53287  0.95487  Biso   1.000  H 
  C47      1.0000 0.36783  0.45017  0.93027  Biso   1.000  C 
  N23      1.0000 0.31963  0.40317  0.94047  Biso   1.000  N 
  C48      1.0000 0.31123  0.35987  0.89527  Biso   1.000  C 
  H40      1.0000 0.27743  0.32687  0.90137  Biso   1.000  H 
  C49      1.0000 0.35313  0.36247  0.83637  Biso   1.000  C 
  H41      1.0000 0.34763  0.32997  0.80657  Biso   1.000  H 
  N24      1.0000 0.39843  0.40717  0.82157  Biso   1.000  N 
  Ag9      1.0000 0.46779  0.40406  0.72808  Biso   1.000  Ag
  N25      1.0000 0.41687  0.34703  0.60713  Biso   1.000  N 
  C50      1.0000 0.38197  0.35543  0.56193  Biso   1.000  C 
  C51      1.0000 0.34267  0.31353  0.50303  Biso   1.000  C 
  H42      1.0000 0.31567  0.31903  0.47323  Biso   1.000  H 
  N26      1.0000 0.34207  0.26823  0.48823  Biso   1.000  N 
  C52      1.0000 0.37637  0.25993  0.53973  Biso   1.000  C 
  H43      1.0000 0.37347  0.22513  0.53683  Biso   1.000  H 
  C53      1.0000 0.41567  0.29883  0.59693  Biso   1.000  C 
  C54      1.0000 0.45637  0.28973  0.65213  Biso   1.000  C 
  H44      1.0000 0.45957  0.26003  0.62153  Biso   1.000  H 
  H45      1.0000 0.49257  0.32323  0.64903  Biso   1.000  H 
  C55      1.0000 0.44077  0.27583  0.75343  Biso   1.000  C 
  C56      1.0000 0.42417  0.22533  0.79333  Biso   1.000  C 
  H46      1.0000 0.42247  0.19733  0.75373  Biso   1.000  H 
  N27      1.0000 0.41067  0.21473  0.88483  Biso   1.000  N 
  C57      1.0000 0.41297  0.25293  0.93853  Biso   1.000  C 
  C58      1.0000 0.42697  0.30353  0.90153  Biso   1.000  C 
  H47      1.0000 0.42547  0.32983  0.94163  Biso   1.000  H 
  N28      1.0000 0.44267  0.31623  0.81073  Biso   1.000  N 
  H48      1.0000 0.40467  0.24603  0.00483  Biso   1.000  H 
  Ag10     1.0000 0.39706  0.13445  0.93858  Biso   1.000  Ag
  N29      1.0000 0.32460  0.06510  0.84510  Biso   1.000  N 
  C59      1.0000 0.32400  0.01980  0.83030  Biso   1.000  C 
  H49      1.0000 0.35100  0.01430  0.86010  Biso   1.000  H 
  C60      1.0000 0.28470  0.97790  0.77140  Biso   1.000  C 
  H50      1.0000 0.28390  0.94410  0.76530  Biso   1.000  H 
  N30      1.0000 0.24980  0.98630  0.72620  Biso   1.000  N 
  C61      1.0000 0.25100  0.03450  0.73640  Biso   1.000  C 
  C62      1.0000 0.21030  0.04360  0.68120  Biso   1.000  C 
  H51      1.0000 0.17410  0.01010  0.68430  Biso   1.000  H 
  H52      1.0000 0.20710  0.07330  0.71180  Biso   1.000  H 
  C63      1.0000 0.22590  0.05750  0.57990  Biso   1.000  C 
  N31      1.0000 0.22400  0.01710  0.52260  Biso   1.000  N 
  C64      1.0000 0.23970  0.02980  0.43180  Biso   1.000  C 
  H53      1.0000 0.24120  0.00350  0.39170  Biso   1.000  H 
  C65      1.0000 0.25370  0.08040  0.39480  Biso   1.000  C 
  H54      1.0000 0.26200  0.08730  0.32850  Biso   1.000  H 
  N32      1.0000 0.25600  0.11860  0.44850  Biso   1.000  N 
  C66      1.0000 0.24250  0.10800  0.54000  Biso   1.000  C 
  H55      1.0000 0.24420  0.13600  0.57960  Biso   1.000  H 
  C67      1.0000 0.29030  0.07340  0.79360  Biso   1.000  C 
  H56      1.0000 0.29320  0.10820  0.79650  Biso   1.000  H 
  N33      1.0000 0.45977  0.10933  0.85593  Biso   1.000  N 
  C68      1.0000 0.45677  0.09363  0.76513  Biso   1.000  C 
  H57      1.0000 0.42897  0.09213  0.72503  Biso   1.000  H 
  C69      1.0000 0.49337  0.07963  0.72813  Biso   1.000  C 
  H58      1.0000 0.49197  0.07133  0.66183  Biso   1.000  H 
  N34      1.0000 0.52927  0.07733  0.78183  Biso   1.000  N 
  C70      1.0000 0.53217  0.09083  0.87333  Biso   1.000  C 
  H59      1.0000 0.55847  0.08913  0.91293  Biso   1.000  H 
  C71      1.0000 0.49827  0.10743  0.91323  Biso   1.000  C 
  C72      1.0000 0.49997  0.12303  0.01453  Biso   1.000  C 
  H60      1.0000 0.50267  0.15923  0.01763  Biso   1.000  H 
  H61      1.0000 0.53287  0.12623  0.04513  Biso   1.000  H 
  C73      1.0000 0.45017  0.08233  0.06973  Biso   1.000  C 
  N35      1.0000 0.40317  0.08353  0.05953  Biso   1.000  N 
  C74      1.0000 0.35987  0.04863  0.10473  Biso   1.000  C 
  C75      1.0000 0.36247  0.00933  0.16363  Biso   1.000  C 
  N36      1.0000 0.40717  0.00873  0.17843  Biso   1.000  N 
  C76      1.0000 0.44977  0.04303  0.12693  Biso   1.000  C 
  H62      1.0000 0.48167  0.04013  0.12983  Biso   1.000  H 
  H63      1.0000 0.32997  0.98233  0.19343  Biso   1.000  H 
  H64      1.0000 0.32687  0.04943  0.09863  Biso   1.000  H 
  Ag11     1.0000 0.59594  0.06372  0.72808  Biso   1.000  Ag
  N37      1.0000 0.65297  0.06983  0.60713  Biso   1.000  N 
  C77      1.0000 0.64457  0.02653  0.56193  Biso   1.000  C 
  C78      1.0000 0.68647  0.02913  0.50303  Biso   1.000  C 
  N38      1.0000 0.73177  0.07383  0.48823  Biso   1.000  N 
  Ag12     1.0000 0.80112  0.07073  0.39475  Biso   1.000  Ag
  N39      1.0000 0.75020  0.01370  0.27380  Biso   1.000  N 
  C79      1.0000 0.71530  0.02210  0.22860  Biso   1.000  C 
  H65      1.0000 0.71610  0.05590  0.23470  Biso   1.000  H 
  C80      1.0000 0.67600  0.98020  0.16970  Biso   1.000  C 
  H66      1.0000 0.64900  0.98570  0.13990  Biso   1.000  H 
  N40      1.0000 0.67540  0.93490  0.15490  Biso   1.000  N 
  C81      1.0000 0.70970  0.92660  0.20640  Biso   1.000  C 
  H67      1.0000 0.70680  0.89180  0.20350  Biso   1.000  H 
  C82      1.0000 0.74900  0.96550  0.26360  Biso   1.000  C 
  C83      1.0000 0.78970  0.95640  0.31880  Biso   1.000  C 
  H68      1.0000 0.79290  0.92670  0.28820  Biso   1.000  H 
  H69      1.0000 0.82590  0.98990  0.31570  Biso   1.000  H 
  C84      1.0000 0.77410  0.94250  0.42010  Biso   1.000  C 
  C85      1.0000 0.75750  0.89200  0.46000  Biso   1.000  C 
  H70      1.0000 0.75580  0.86400  0.42040  Biso   1.000  H 
  N41      1.0000 0.74400  0.88140  0.55150  Biso   1.000  N 
  C86      1.0000 0.74630  0.91960  0.60520  Biso   1.000  C 
  C87      1.0000 0.76030  0.97020  0.56820  Biso   1.000  C 
  H71      1.0000 0.75880  0.99650  0.60830  Biso   1.000  H 
  N42      1.0000 0.77600  0.98290  0.47740  Biso   1.000  N 
  H72      1.0000 0.73800  0.91270  0.67150  Biso   1.000  H 
  Ag13     1.0000 0.73039  0.80112  0.60525  Biso   1.000  Ag
  N43      1.0000 0.65793  0.73177  0.51177  Biso   1.000  N 
  C88      1.0000 0.65733  0.68647  0.49697  Biso   1.000  C 
  H73      1.0000 0.68433  0.68097  0.52677  Biso   1.000  H 
  C89      1.0000 0.61803  0.64457  0.43807  Biso   1.000  C 
  H74      1.0000 0.61723  0.61077  0.43197  Biso   1.000  H 
  N44      1.0000 0.58313  0.65297  0.39287  Biso   1.000  N 
  C90      1.0000 0.58433  0.70117  0.40307  Biso   1.000  C 
  C91      1.0000 0.54363  0.71027  0.34787  Biso   1.000  C 
  H75      1.0000 0.54043  0.73997  0.37847  Biso   1.000  H 
  H76      1.0000 0.50743  0.67677  0.35097  Biso   1.000  H 
  C92      1.0000 0.55923  0.72417  0.24657  Biso   1.000  C 
  C93      1.0000 0.57583  0.77467  0.20667  Biso   1.000  C 
  H77      1.0000 0.57753  0.80267  0.24627  Biso   1.000  H 
  C94      1.0000 0.62363  0.74007  0.46027  Biso   1.000  C 
  H78      1.0000 0.62653  0.77487  0.46317  Biso   1.000  H 
  N45      1.0000 0.79310  0.77600  0.52260  Biso   1.000  N 
  C95      1.0000 0.79010  0.76030  0.43180  Biso   1.000  C 
  H79      1.0000 0.76230  0.75880  0.39170  Biso   1.000  H 
  C96      1.0000 0.82670  0.74630  0.39480  Biso   1.000  C 
  H80      1.0000 0.82530  0.73800  0.32850  Biso   1.000  H 
  N46      1.0000 0.86260  0.74400  0.44850  Biso   1.000  N 
  C97      1.0000 0.86550  0.75750  0.54000  Biso   1.000  C 
  H81      1.0000 0.89180  0.75580  0.57960  Biso   1.000  H 
  C98      1.0000 0.83160  0.77410  0.57990  Biso   1.000  C 
  C99      1.0000 0.83330  0.78970  0.68120  Biso   1.000  C 
  H82      1.0000 0.83600  0.82590  0.68430  Biso   1.000  H 
  H83      1.0000 0.86620  0.79290  0.71180  Biso   1.000  H 
  C100     1.0000 0.78350  0.74900  0.73640  Biso   1.000  C 
  C101     1.0000 0.78310  0.70970  0.79360  Biso   1.000  C 
  N47      1.0000 0.74050  0.67540  0.84510  Biso   1.000  N 
  C102     1.0000 0.69580  0.67600  0.83030  Biso   1.000  C 
  H84      1.0000 0.66330  0.64900  0.86010  Biso   1.000  H 
  C103     1.0000 0.69320  0.71530  0.77140  Biso   1.000  C 
  H85      1.0000 0.66020  0.71610  0.76530  Biso   1.000  H 
  N48      1.0000 0.73650  0.75020  0.72620  Biso   1.000  N 
  Ag14     1.0000 0.73740  0.60294  0.93858  Biso   1.000  Ag
  N49      1.0000 0.64957  0.54023  0.85593  Biso   1.000  N 
  C104     1.0000 0.63687  0.54323  0.76513  Biso   1.000  C 
  H86      1.0000 0.66317  0.57103  0.72503  Biso   1.000  H 
  C105     1.0000 0.58627  0.50663  0.72813  Biso   1.000  C 
  H87      1.0000 0.57937  0.50803  0.66183  Biso   1.000  H 
  N50      1.0000 0.54807  0.47073  0.78183  Biso   1.000  N 
  C106     1.0000 0.55867  0.46783  0.87333  Biso   1.000  C 
  H88      1.0000 0.53067  0.44153  0.91293  Biso   1.000  H 
  C107     1.0000 0.60917  0.50173  0.91323  Biso   1.000  C 
  C108     1.0000 0.62307  0.50003  0.01453  Biso   1.000  C 
  H89      1.0000 0.65657  0.49733  0.01763  Biso   1.000  H 
  H90      1.0000 0.59337  0.46713  0.04513  Biso   1.000  H 
  C109     1.0000 0.63217  0.54983  0.06973  Biso   1.000  C 
  N51      1.0000 0.68037  0.59683  0.05953  Biso   1.000  N 
  C110     1.0000 0.68877  0.64013  0.10473  Biso   1.000  C 
  C111     1.0000 0.64687  0.63753  0.16363  Biso   1.000  C 
  H91      1.0000 0.65237  0.67003  0.19343  Biso   1.000  H 
  N52      1.0000 0.60157  0.59283  0.17843  Biso   1.000  N 
  C112     1.0000 0.59327  0.55023  0.12693  Biso   1.000  C 
  H92      1.0000 0.55847  0.51833  0.12983  Biso   1.000  H 
  H93      1.0000 0.72257  0.67313  0.09863  Biso   1.000  H 
  N53      1.0000 0.80407  0.58933  0.88483  Biso   1.000  N 
  C113     1.0000 0.80117  0.57583  0.79333  Biso   1.000  C 
  H94      1.0000 0.77487  0.57753  0.75373  Biso   1.000  H 
  C114     1.0000 0.83507  0.55923  0.75343  Biso   1.000  C 
  C115     1.0000 0.83337  0.54363  0.65213  Biso   1.000  C 
  H95      1.0000 0.80047  0.54043  0.62153  Biso   1.000  H 
  H96      1.0000 0.83067  0.50743  0.64903  Biso   1.000  H 
  C116     1.0000 0.88317  0.58433  0.59693  Biso   1.000  C 
  C117     1.0000 0.88357  0.62363  0.53973  Biso   1.000  C 
  H97      1.0000 0.85167  0.62653  0.53683  Biso   1.000  H 
  N54      1.0000 0.92617  0.65793  0.48823  Biso   1.000  N 
  C118     1.0000 0.97087  0.65733  0.50303  Biso   1.000  C 
  H98      1.0000 0.00337  0.68433  0.47323  Biso   1.000  H 
  C119     1.0000 0.97347  0.61803  0.56193  Biso   1.000  C 
  H99      1.0000 0.00647  0.61723  0.56803  Biso   1.000  H 
  N55      1.0000 0.93017  0.58313  0.60713  Biso   1.000  N 
  Ag15     1.0000 0.93628  0.53221  0.72808  Biso   1.000  Ag
  N56      1.0000 0.87357  0.55733  0.81073  Biso   1.000  N 
  C120     1.0000 0.87657  0.57303  0.90153  Biso   1.000  C 
  H100     1.0000 0.90437  0.57453  0.94163  Biso   1.000  H 
  C121     1.0000 0.83997  0.58703  0.93853  Biso   1.000  C 
  H101     1.0000 0.84137  0.59533  0.00483  Biso   1.000  H 
  N57      1.0000 0.92267  0.45193  0.78183  Biso   1.000  N 
  C122     1.0000 0.90917  0.44133  0.87333  Biso   1.000  C 
  H102     1.0000 0.91087  0.46933  0.91293  Biso   1.000  H 
  C123     1.0000 0.89257  0.39083  0.91323  Biso   1.000  C 
  N58      1.0000 0.89067  0.35043  0.85593  Biso   1.000  N 
  C124     1.0000 0.90637  0.36313  0.76513  Biso   1.000  C 
  H103     1.0000 0.90787  0.33683  0.72503  Biso   1.000  H 
  C125     1.0000 0.92037  0.41373  0.72813  Biso   1.000  C 
  H104     1.0000 0.92867  0.42063  0.66183  Biso   1.000  H 
  Ag16     1.0000 0.86555  0.26260  0.93858  Biso   1.000  Ag
  N59      1.0000 0.78527  0.19593  0.88483  Biso   1.000  N 
  C126     1.0000 0.74707  0.16003  0.93853  Biso   1.000  C 
  C127     1.0000 0.69647  0.12343  0.90153  Biso   1.000  C 
  H105     1.0000 0.67017  0.09563  0.94163  Biso   1.000  H 
  N60      1.0000 0.68377  0.12643  0.81073  Biso   1.000  N 
  C128     1.0000 0.72417  0.16493  0.75343  Biso   1.000  C 
  C129     1.0000 0.71027  0.16663  0.65213  Biso   1.000  C 
  H106     1.0000 0.67677  0.16933  0.64903  Biso   1.000  H 
  H107     1.0000 0.73997  0.19953  0.62153  Biso   1.000  H 
  C130     1.0000 0.70117  0.11683  0.59693  Biso   1.000  C 
  C131     1.0000 0.74007  0.11643  0.53973  Biso   1.000  C 
  H108     1.0000 0.77487  0.14833  0.53683  Biso   1.000  H 
  C132     1.0000 0.77467  0.19883  0.79333  Biso   1.000  C 
  H109     1.0000 0.80267  0.22513  0.75373  Biso   1.000  H 
  H110     1.0000 0.75397  0.15863  0.00483  Biso   1.000  H 
  N61      1.0000 0.93490  0.25950  0.84510  Biso   1.000  N 
  C133     1.0000 0.98020  0.30420  0.83030  Biso   1.000  C 
  H111     1.0000 0.98570  0.33670  0.86010  Biso   1.000  H 
  C134     1.0000 0.02210  0.30680  0.77140  Biso   1.000  C 
  H112     1.0000 0.05590  0.33980  0.76530  Biso   1.000  H 
  N62      1.0000 0.01370  0.26350  0.72620  Biso   1.000  N 
  Ag17     1.0000 0.07073  0.26961  0.60525  Biso   1.000  Ag
  N63      1.0000 0.07383  0.34207  0.51177  Biso   1.000  N 
  C135     1.0000 0.02913  0.34267  0.49697  Biso   1.000  C 
  C136     1.0000 0.02653  0.38197  0.43807  Biso   1.000  C 
  N64      1.0000 0.06983  0.41687  0.39287  Biso   1.000  N 
  C137     1.0000 0.11683  0.41567  0.40307  Biso   1.000  C 
  C138     1.0000 0.16663  0.45637  0.34787  Biso   1.000  C 
  H113     1.0000 0.16933  0.49257  0.35097  Biso   1.000  H 
  H114     1.0000 0.19953  0.45957  0.37847  Biso   1.000  H 
  C139     1.0000 0.11643  0.37637  0.46027  Biso   1.000  C 
  H115     1.0000 0.14833  0.37347  0.46317  Biso   1.000  H 
  H116     1.0000 0.99353  0.38277  0.43197  Biso   1.000  H 
  H117     1.0000 0.99663  0.31567  0.52677  Biso   1.000  H 
  N65      1.0000 0.98290  0.20690  0.52260  Biso   1.000  N 
  C140     1.0000 0.97020  0.20990  0.43180  Biso   1.000  C 
  H118     1.0000 0.99650  0.23770  0.39170  Biso   1.000  H 
  C141     1.0000 0.91960  0.17330  0.39480  Biso   1.000  C 
  H119     1.0000 0.91270  0.17470  0.32850  Biso   1.000  H 
  N66      1.0000 0.88140  0.13740  0.44850  Biso   1.000  N 
  C142     1.0000 0.89200  0.13450  0.54000  Biso   1.000  C 
  H120     1.0000 0.86400  0.10820  0.57960  Biso   1.000  H 
  C143     1.0000 0.94250  0.16840  0.57990  Biso   1.000  C 
  C144     1.0000 0.95640  0.16670  0.68120  Biso   1.000  C 
  H121     1.0000 0.92670  0.13380  0.71180  Biso   1.000  H 
  H122     1.0000 0.98990  0.16400  0.68430  Biso   1.000  H 
  C145     1.0000 0.96550  0.21650  0.73640  Biso   1.000  C 
  C146     1.0000 0.92660  0.21690  0.79360  Biso   1.000  C 
  H123     1.0000 0.89180  0.18500  0.79650  Biso   1.000  H 
  N67      1.0000 0.91647  0.31963  0.05953  Biso   1.000  N 
  C147     1.0000 0.95137  0.31123  0.10473  Biso   1.000  C 
  C148     1.0000 0.99067  0.35313  0.16363  Biso   1.000  C 
  H124     1.0000 0.01767  0.34763  0.19343  Biso   1.000  H 
  N68      1.0000 0.99127  0.39843  0.17843  Biso   1.000  N 
  C149     1.0000 0.95697  0.40673  0.12693  Biso   1.000  C 
  H125     1.0000 0.95987  0.44153  0.12983  Biso   1.000  H 
  C150     1.0000 0.91767  0.36783  0.06973  Biso   1.000  C 
  C151     1.0000 0.87697  0.37693  0.01453  Biso   1.000  C 
  H126     1.0000 0.87377  0.40663  0.04513  Biso   1.000  H 
  H127     1.0000 0.84077  0.34343  0.01763  Biso   1.000  H 
  H128     1.0000 0.95057  0.27743  0.09863  Biso   1.000  H 
  N69      1.0000 0.00873  0.60157  0.82157  Biso   1.000  N 
  C152     1.0000 0.00933  0.64687  0.83637  Biso   1.000  C 
  C153     1.0000 0.04863  0.68877  0.89527  Biso   1.000  C 
  H129     1.0000 0.04943  0.72257  0.90137  Biso   1.000  H 
  N70      1.0000 0.08353  0.68037  0.94047  Biso   1.000  N 
  C154     1.0000 0.08233  0.63217  0.93027  Biso   1.000  C 
  C155     1.0000 0.04303  0.59327  0.87307  Biso   1.000  C 
  H130     1.0000 0.04013  0.55847  0.87017  Biso   1.000  H 
  C156     1.0000 0.12303  0.62307  0.98547  Biso   1.000  C 
  H131     1.0000 0.12623  0.59337  0.95487  Biso   1.000  H 
  H132     1.0000 0.15923  0.65657  0.98237  Biso   1.000  H 
  H133     1.0000 0.98233  0.65237  0.80657  Biso   1.000  H 
  Ag18     1.0000 0.92927  0.73039  0.39475  Biso   1.000  Ag
  H134     1.0000 0.81500  0.70680  0.79650  Biso   1.000  H 
  H135     1.0000 0.68097  0.99663  0.47323  Biso   1.000  H 
  H136     1.0000 0.61077  0.99353  0.56803  Biso   1.000  H 
  N71      1.0000 0.59283  0.99127  0.82157  Biso   1.000  N 
  C157     1.0000 0.63753  0.99067  0.83637  Biso   1.000  C 
  H137     1.0000 0.67003  0.01767  0.80657  Biso   1.000  H 
  C158     1.0000 0.64013  0.95137  0.89527  Biso   1.000  C 
  H138     1.0000 0.67313  0.95057  0.90137  Biso   1.000  H 
  N72      1.0000 0.59683  0.91647  0.94047  Biso   1.000  N 
  C159     1.0000 0.54983  0.91767  0.93027  Biso   1.000  C 
  C160     1.0000 0.50003  0.87697  0.98547  Biso   1.000  C 
  H139     1.0000 0.46713  0.87377  0.95487  Biso   1.000  H 
  H140     1.0000 0.49733  0.84077  0.98237  Biso   1.000  H 
  C161     1.0000 0.55023  0.95697  0.87307  Biso   1.000  C 
  H141     1.0000 0.51833  0.95987  0.87017  Biso   1.000  H 
  H142     1.0000 0.38277  0.38923  0.56803  Biso   1.000  H 
  C162     1.0000 0.40673  0.44977  0.87307  Biso   1.000  C 
  H143     1.0000 0.44153  0.48167  0.87017  Biso   1.000  H 
  H144     1.0000 0.59533  0.75397  0.99517  Biso   1.000  H 
