data_image0
_cell_length_a       9.9343
_cell_length_b       15.3453
_cell_length_c       20.229
_cell_angle_alpha    97.794
_cell_angle_beta     95.978
_cell_angle_gamma    97.962

_symmetry_space_group_name_H-M    "P 1"
_symmetry_int_tables_number       1

loop_
  _symmetry_equiv_pos_as_xyz
  'x, y, z'

loop_
  _atom_site_label
  _atom_site_occupancy
  _atom_site_fract_x
  _atom_site_fract_y
  _atom_site_fract_z
  _atom_site_thermal_displace_type
  _atom_site_B_iso_or_equiv
  _atom_site_type_symbol
  Co1      1.0000 0.23852  0.38734  0.32028  Biso   1.000  Co
  Co2      1.0000 0.76148  0.61266  0.67972  Biso   1.000  Co
  Co3      1.0000 0.21847  0.08935  0.32879  Biso   1.000  Co
  Co4      1.0000 0.78153  0.91065  0.67121  Biso   1.000  Co
  O1       1.0000 0.12310  0.50240  0.31950  Biso   1.000  O 
  O2       1.0000 0.87690  0.49760  0.68050  Biso   1.000  O 
  O3       1.0000 0.33670  0.53330  0.32960  Biso   1.000  O 
  O4       1.0000 0.66330  0.46670  0.67040  Biso   1.000  O 
  O5       1.0000 0.12210  0.95600  0.31770  Biso   1.000  O 
  O6       1.0000 0.87790  0.04400  0.68230  Biso   1.000  O 
  O7       1.0000 0.33160  0.97620  0.32580  Biso   1.000  O 
  O8       1.0000 0.66840  0.02380  0.67420  Biso   1.000  O 
  O9       1.0000 0.08990  0.27960  0.30040  Biso   1.000  O 
  O10      1.0000 0.91010  0.72040  0.69960  Biso   1.000  O 
  O11      1.0000 0.04450  0.14500  0.32860  Biso   1.000  O 
  O12      1.0000 0.95550  0.85500  0.67140  Biso   1.000  O 
  O13      1.0000 0.41460  0.33460  0.32210  Biso   1.000  O 
  O14      1.0000 0.58540  0.66540  0.67790  Biso   1.000  O 
  O15      1.0000 0.36570  0.19570  0.34450  Biso   1.000  O 
  O16      1.0000 0.63430  0.80430  0.65550  Biso   1.000  O 
  N1       1.0000 0.22800  0.39590  0.42390  Biso   1.000  N 
  N2       1.0000 0.77200  0.60410  0.57610  Biso   1.000  N 
  C1       1.0000 0.19900  0.47360  0.45440  Biso   1.000  C 
  C2       1.0000 0.80100  0.52640  0.54560  Biso   1.000  C 
  H1       1.0000 0.18050  0.51890  0.43020  Biso   1.000  H 
  H2       1.0000 0.81950  0.48110  0.56980  Biso   1.000  H 
  C3       1.0000 0.19600  0.48260  0.52270  Biso   1.000  C 
  C4       1.0000 0.80400  0.51740  0.47730  Biso   1.000  C 
  H3       1.0000 0.17750  0.53470  0.54680  Biso   1.000  H 
  H4       1.0000 0.82250  0.46530  0.45320  Biso   1.000  H 
  C5       1.0000 0.22200  0.41160  0.55360  Biso   1.000  C 
  C6       1.0000 0.77800  0.58840  0.44640  Biso   1.000  C 
  C7       1.0000 0.25200  0.33350  0.52240  Biso   1.000  C 
  C8       1.0000 0.74800  0.66650  0.47760  Biso   1.000  C 
  H5       1.0000 0.27330  0.28730  0.54490  Biso   1.000  H 
  H6       1.0000 0.72670  0.71270  0.45510  Biso   1.000  H 
  C9       1.0000 0.24700  0.33060  0.45240  Biso   1.000  C 
  C10      1.0000 0.75300  0.66940  0.54760  Biso   1.000  C 
  H7       1.0000 0.25840  0.27800  0.42630  Biso   1.000  H 
  H8       1.0000 0.74160  0.72200  0.57370  Biso   1.000  H 
  C11      1.0000 0.23900  0.42580  0.63250  Biso   1.000  C 
  C12      1.0000 0.76100  0.57420  0.36750  Biso   1.000  C 
  H9       1.0000 0.21650  0.47880  0.65340  Biso   1.000  H 
  H10      1.0000 0.78350  0.52120  0.34660  Biso   1.000  H 
  C13      1.0000 0.28000  0.37200  0.67220  Biso   1.000  C 
  C14      1.0000 0.72000  0.62800  0.32780  Biso   1.000  C 
  H11      1.0000 0.30550  0.32030  0.65090  Biso   1.000  H 
  H12      1.0000 0.69450  0.67970  0.34910  Biso   1.000  H 
  C15      1.0000 0.29300  0.38280  0.75300  Biso   1.000  C 
  C16      1.0000 0.70700  0.61720  0.24700  Biso   1.000  C 
  C17      1.0000 0.25800  0.46310  0.78110  Biso   1.000  C 
  C18      1.0000 0.74200  0.53690  0.21890  Biso   1.000  C 
  H13      1.0000 0.23680  0.50770  0.75670  Biso   1.000  H 
  H14      1.0000 0.76320  0.49230  0.24330  Biso   1.000  H 
  C19      1.0000 0.25800  0.46800  0.85160  Biso   1.000  C 
  C20      1.0000 0.74200  0.53200  0.14840  Biso   1.000  C 
  H15      1.0000 0.23630  0.51830  0.87680  Biso   1.000  H 
  H16      1.0000 0.76370  0.48170  0.12320  Biso   1.000  H 
  C21      1.0000 0.29100  0.39740  0.88280  Biso   1.000  C 
  C22      1.0000 0.70900  0.60260  0.11720  Biso   1.000  C 
  C23      1.0000 0.32800  0.32040  0.85070  Biso   1.000  C 
  C24      1.0000 0.67200  0.67960  0.14930  Biso   1.000  C 
  H17      1.0000 0.35330  0.27570  0.87370  Biso   1.000  H 
  H18      1.0000 0.64670  0.72430  0.12630  Biso   1.000  H 
  C25      1.0000 0.32300  0.31470  0.78110  Biso   1.000  C 
  C26      1.0000 0.67700  0.68530  0.21890  Biso   1.000  C 
  H19      1.0000 0.34000  0.26360  0.75510  Biso   1.000  H 
  H20      1.0000 0.66000  0.73640  0.24490  Biso   1.000  H 
  C27      1.0000 0.28300  0.40500  0.95900  Biso   1.000  C 
  C28      1.0000 0.71700  0.59500  0.04100  Biso   1.000  C 
  H21      1.0000 0.27230  0.46100  0.98010  Biso   1.000  H 
  H22      1.0000 0.72770  0.53900  0.01990  Biso   1.000  H 
  C29      1.0000 0.28800  0.34460  0.99790  Biso   1.000  C 
  C30      1.0000 0.71200  0.65540  0.00210  Biso   1.000  C 
  H23      1.0000 0.30480  0.28940  0.97830  Biso   1.000  H 
  H24      1.0000 0.69520  0.71060  0.02170  Biso   1.000  H 
  N3       1.0000 0.24900  0.37450  0.20140  Biso   1.000  N 
  N4       1.0000 0.75100  0.62550  0.79860  Biso   1.000  N 
  C31      1.0000 0.28500  0.30230  0.17670  Biso   1.000  C 
  C32      1.0000 0.71500  0.69770  0.82330  Biso   1.000  C 
  H25      1.0000 0.30150  0.25980  0.20390  Biso   1.000  H 
  H26      1.0000 0.69850  0.74020  0.79610  Biso   1.000  H 
  C33      1.0000 0.29900  0.28670  0.10780  Biso   1.000  C 
  C34      1.0000 0.70100  0.71330  0.89220  Biso   1.000  C 
  H27      1.0000 0.32670  0.23520  0.08740  Biso   1.000  H 
  H28      1.0000 0.67330  0.76480  0.91260  Biso   1.000  H 
  C35      1.0000 0.26900  0.35440  0.07310  Biso   1.000  C 
  C36      1.0000 0.73100  0.64560  0.92690  Biso   1.000  C 
  C37      1.0000 0.23500  0.43500  0.10200  Biso   1.000  C 
  C38      1.0000 0.76500  0.56500  0.89800  Biso   1.000  C 
  H29      1.0000 0.22400  0.48200  0.07830  Biso   1.000  H 
  H30      1.0000 0.77600  0.51800  0.92170  Biso   1.000  H 
  C39      1.0000 0.22000  0.43800  0.17210  Biso   1.000  C 
  C40      1.0000 0.78000  0.56200  0.82790  Biso   1.000  C 
  H31      1.0000 0.18960  0.48640  0.19550  Biso   1.000  H 
  H32      1.0000 0.81040  0.51360  0.80450  Biso   1.000  H 
  N5       1.0000 0.22000  0.09600  0.44350  Biso   1.000  N 
  N6       1.0000 0.78000  0.90400  0.55650  Biso   1.000  N 
  C41      1.0000 0.09800  0.08330  0.46430  Biso   1.000  C 
  C42      1.0000 0.90200  0.91670  0.53570  Biso   1.000  C 
  H33      1.0000 0.01880  0.07760  0.43440  Biso   1.000  H 
  H34      1.0000 0.98120  0.92240  0.56560  Biso   1.000  H 
  C43      1.0000 0.09200  0.07890  0.53210  Biso   1.000  C 
  C44      1.0000 0.90800  0.92110  0.46790  Biso   1.000  C 
  H35      1.0000 0.00980  0.06910  0.54970  Biso   1.000  H 
  H36      1.0000 0.99020  0.93090  0.45030  Biso   1.000  H 
  C45      1.0000 0.22100  0.09040  0.57240  Biso   1.000  C 
  C46      1.0000 0.77900  0.90960  0.42760  Biso   1.000  C 
  C47      1.0000 0.34300  0.10230  0.54900  Biso   1.000  C 
  C48      1.0000 0.65700  0.89770  0.45100  Biso   1.000  C 
  H37      1.0000 0.42460  0.10890  0.57740  Biso   1.000  H 
  H38      1.0000 0.57540  0.89110  0.42260  Biso   1.000  H 
  C49      1.0000 0.34100  0.10450  0.47980  Biso   1.000  C 
  C50      1.0000 0.65900  0.89550  0.52020  Biso   1.000  C 
  H39      1.0000 0.42130  0.11160  0.46020  Biso   1.000  H 
  H40      1.0000 0.57870  0.88840  0.53980  Biso   1.000  H 
  C51      1.0000 0.21300  0.08590  0.64740  Biso   1.000  C 
  C52      1.0000 0.78700  0.91410  0.35260  Biso   1.000  C 
  H41      1.0000 0.12900  0.09130  0.66280  Biso   1.000  H 
  H42      1.0000 0.87100  0.90870  0.33720  Biso   1.000  H 
  C53      1.0000 0.31150  0.07550  0.69140  Biso   1.000  C 
  C54      1.0000 0.68850  0.92450  0.30860  Biso   1.000  C 
  H43      1.0000 0.39550  0.07240  0.67560  Biso   1.000  H 
  H44      1.0000 0.60450  0.92760  0.32440  Biso   1.000  H 
  C55      1.0000 0.30900  0.06710  0.76940  Biso   1.000  C 
  C56      1.0000 0.69100  0.93290  0.23060  Biso   1.000  C 
  C57      1.0000 0.18600  0.06290  0.79100  Biso   1.000  C 
  C58      1.0000 0.81400  0.93710  0.20900  Biso   1.000  C 
  H45      1.0000 0.10640  0.06000  0.76160  Biso   1.000  H 
  H46      1.0000 0.89360  0.94000  0.23840  Biso   1.000  H 
  C59      1.0000 0.18200  0.06330  0.85950  Biso   1.000  C 
  C60      1.0000 0.81800  0.93670  0.14050  Biso   1.000  C 
  H47      1.0000 0.10050  0.06020  0.87820  Biso   1.000  H 
  H48      1.0000 0.89950  0.93980  0.12180  Biso   1.000  H 
  C61      1.0000 0.30700  0.06850  0.89820  Biso   1.000  C 
  C62      1.0000 0.69300  0.93150  0.10180  Biso   1.000  C 
  C63      1.0000 0.43000  0.07250  0.87500  Biso   1.000  C 
  C64      1.0000 0.57000  0.92750  0.12500  Biso   1.000  C 
  H49      1.0000 0.51070  0.07670  0.90390  Biso   1.000  H 
  H50      1.0000 0.48930  0.92330  0.09610  Biso   1.000  H 
  C65      1.0000 0.43100  0.07020  0.80510  Biso   1.000  C 
  C66      1.0000 0.56900  0.92980  0.19490  Biso   1.000  C 
  H51      1.0000 0.51140  0.07070  0.78520  Biso   1.000  H 
  H52      1.0000 0.48860  0.92930  0.21480  Biso   1.000  H 
  C67      1.0000 0.30400  0.07020  0.97550  Biso   1.000  C 
  C68      1.0000 0.69600  0.92980  0.02450  Biso   1.000  C 
  H53      1.0000 0.38970  0.08530  0.00070  Biso   1.000  H 
  H54      1.0000 0.61030  0.91470  0.99930  Biso   1.000  H 
  C69      1.0000 0.20500  0.05500  0.01140  Biso   1.000  C 
  C70      1.0000 0.79500  0.94500  0.98860  Biso   1.000  C 
  H55      1.0000 0.11740  0.04190  0.98720  Biso   1.000  H 
  H56      1.0000 0.88260  0.95810  0.01280  Biso   1.000  H 
  N7       1.0000 0.21500  0.07460  0.22160  Biso   1.000  N 
  N8       1.0000 0.78500  0.92540  0.77840  Biso   1.000  N 
  C71      1.0000 0.09800  0.05870  0.18500  Biso   1.000  C 
  C72      1.0000 0.90200  0.94130  0.81500  Biso   1.000  C 
  H57      1.0000 0.01860  0.05510  0.20550  Biso   1.000  H 
  H58      1.0000 0.98140  0.94490  0.79450  Biso   1.000  H 
  C73      1.0000 0.08900  0.04680  0.11520  Biso   1.000  C 
  C74      1.0000 0.91100  0.95320  0.88480  Biso   1.000  C 
  H59      1.0000 0.00510  0.03480  0.08780  Biso   1.000  H 
  H60      1.0000 0.99490  0.96520  0.91220  Biso   1.000  H 
  C75      1.0000 0.20900  0.05400  0.09030  Biso   1.000  C 
  C76      1.0000 0.79100  0.94600  0.90970  Biso   1.000  C 
  C77      1.0000 0.33200  0.06940  0.12730  Biso   1.000  C 
  C78      1.0000 0.66800  0.93060  0.87270  Biso   1.000  C 
  H61      1.0000 0.41290  0.07620  0.10780  Biso   1.000  H 
  H62      1.0000 0.58710  0.92380  0.89220  Biso   1.000  H 
  C79      1.0000 0.33200  0.07440  0.19610  Biso   1.000  C 
  C80      1.0000 0.66800  0.92560  0.80390  Biso   1.000  C 
  H63      1.0000 0.41360  0.07760  0.22410  Biso   1.000  H 
  H64      1.0000 0.58640  0.92240  0.77590  Biso   1.000  H 
  C81      1.0000 0.22600  0.55080  0.32400  Biso   1.000  C 
  C82      1.0000 0.77400  0.44920  0.67600  Biso   1.000  C 
  C83      1.0000 0.22060  0.64800  0.32130  Biso   1.000  C 
  C84      1.0000 0.77940  0.35200  0.67870  Biso   1.000  C 
  C85      1.0000 0.10800  0.68340  0.32030  Biso   1.000  C 
  C86      1.0000 0.89200  0.31660  0.67970  Biso   1.000  C 
  H65      1.0000 0.02570  0.64680  0.32130  Biso   1.000  H 
  H66      1.0000 0.97430  0.35320  0.67870  Biso   1.000  H 
  C87      1.0000 0.10620  0.77160  0.31800  Biso   1.000  C 
  C88      1.0000 0.89380  0.22840  0.68200  Biso   1.000  C 
  H67      1.0000 0.02350  0.79370  0.31610  Biso   1.000  H 
  H68      1.0000 0.97650  0.20630  0.68390  Biso   1.000  H 
  C89      1.0000 0.22870  0.82870  0.31830  Biso   1.000  C 
  C90      1.0000 0.77130  0.17130  0.68170  Biso   1.000  C 
  C91      1.0000 0.34790  0.79290  0.31950  Biso   1.000  C 
  C92      1.0000 0.65210  0.20710  0.68050  Biso   1.000  C 
  H69      1.0000 0.42980  0.82980  0.31810  Biso   1.000  H 
  H70      1.0000 0.57020  0.17020  0.68190  Biso   1.000  H 
  C93      1.0000 0.35010  0.70310  0.32260  Biso   1.000  C 
  C94      1.0000 0.64990  0.29690  0.67740  Biso   1.000  C 
  H71      1.0000 0.43180  0.67980  0.32540  Biso   1.000  H 
  H72      1.0000 0.56820  0.32020  0.67460  Biso   1.000  H 
  C95      1.0000 0.22970  0.92570  0.32050  Biso   1.000  C 
  C96      1.0000 0.77030  0.07430  0.67950  Biso   1.000  C 
  C97      1.0000 0.01120  0.21820  0.31640  Biso   1.000  C 
  C98      1.0000 0.98880  0.78180  0.68360  Biso   1.000  C 
  C99      1.0000 0.86670  0.22840  0.31940  Biso   1.000  C 
  C100     1.0000 0.13330  0.77160  0.68060  Biso   1.000  C 
  C101     1.0000 0.76900  0.15740  0.32890  Biso   1.000  C 
  C102     1.0000 0.23100  0.84260  0.67110  Biso   1.000  C 
  H73      1.0000 0.79680  0.10300  0.33380  Biso   1.000  H 
  H74      1.0000 0.20320  0.89700  0.66620  Biso   1.000  H 
  C103     1.0000 0.63340  0.16590  0.33110  Biso   1.000  C 
  C104     1.0000 0.36660  0.83410  0.66890  Biso   1.000  C 
  H75      1.0000 0.56990  0.11780  0.33670  Biso   1.000  H 
  H76      1.0000 0.43010  0.88220  0.66330  Biso   1.000  H 
  C105     1.0000 0.59340  0.24760  0.32490  Biso   1.000  C 
  C106     1.0000 0.40660  0.75240  0.67510  Biso   1.000  C 
  C107     1.0000 0.68410  0.31990  0.31810  Biso   1.000  C 
  C108     1.0000 0.31590  0.68010  0.68190  Biso   1.000  C 
  H77      1.0000 0.65530  0.37490  0.31690  Biso   1.000  H 
  H78      1.0000 0.34470  0.62510  0.68310  Biso   1.000  H 
  C109     1.0000 0.82380  0.31050  0.31290  Biso   1.000  C 
  C110     1.0000 0.17620  0.68950  0.68710  Biso   1.000  C 
  H79      1.0000 0.88560  0.35830  0.30530  Biso   1.000  H 
  H80      1.0000 0.11440  0.64170  0.69470  Biso   1.000  H 
  C111     1.0000 0.44730  0.25870  0.33120  Biso   1.000  C 
  C112     1.0000 0.55270  0.74130  0.66880  Biso   1.000  C 
  O17      1.0000 0.38100  0.86900  0.51200  Biso   1.000  O 
  O18      1.0000 0.61900  0.13100  0.48800  Biso   1.000  O 
  N9       1.0000 0.25790  0.70680  0.49920  Biso   1.000  N 
  N10      1.0000 0.74210  0.29320  0.50080  Biso   1.000  N 
  C113     1.0000 0.13900  0.64100  0.50030  Biso   1.000  C 
  C114     1.0000 0.86100  0.35900  0.49970  Biso   1.000  C 
  H81      1.0000 0.05870  0.66900  0.50170  Biso   1.000  H 
  H82      1.0000 0.94130  0.33100  0.49830  Biso   1.000  H 
  H83      1.0000 0.12730  0.59690  0.46050  Biso   1.000  H 
  H84      1.0000 0.87270  0.40310  0.53950  Biso   1.000  H 
  H85      1.0000 0.15170  0.61190  0.53940  Biso   1.000  H 
  H86      1.0000 0.84830  0.38810  0.46060  Biso   1.000  H 
  C115     1.0000 0.38800  0.67300  0.49710  Biso   1.000  C 
  C116     1.0000 0.61200  0.32700  0.50290  Biso   1.000  C 
  H87      1.0000 0.45950  0.72180  0.49650  Biso   1.000  H 
  H88      1.0000 0.54050  0.27820  0.50350  Biso   1.000  H 
  H89      1.0000 0.40660  0.64560  0.53600  Biso   1.000  H 
  H90      1.0000 0.59340  0.35440  0.46400  Biso   1.000  H 
  H91      1.0000 0.38210  0.63050  0.45720  Biso   1.000  H 
  H92      1.0000 0.61790  0.36950  0.54280  Biso   1.000  H 
  C117     1.0000 0.28000  0.80380  0.49920  Biso   1.000  C 
  C118     1.0000 0.72000  0.19620  0.50080  Biso   1.000  C 
  H93      1.0000 0.19850  0.82370  0.48650  Biso   1.000  H 
  H94      1.0000 0.80150  0.17630  0.51350  Biso   1.000  H 
  O19      1.0000 0.74600  0.26600  0.89000  Biso   1.000  O 
  O20      1.0000 0.25400  0.73400  0.11000  Biso   1.000  O 
  H95      1.0000 0.84596  0.26600  0.89000  Biso   1.000  H 
  H96      1.0000 0.15404  0.73400  0.11000  Biso   1.000  H 
  H97      1.0000 0.71809  0.31460  0.86646  Biso   1.000  H 
  H98      1.0000 0.28191  0.68540  0.13354  Biso   1.000  H 
