data_image0
_cell_length_a       15.6141
_cell_length_b       17.0338
_cell_length_c       16.3128
_cell_angle_alpha    90
_cell_angle_beta     115.824
_cell_angle_gamma    90

_symmetry_space_group_name_H-M    "P 1"
_symmetry_int_tables_number       1

loop_
  _symmetry_equiv_pos_as_xyz
  'x, y, z'

loop_
  _atom_site_label
  _atom_site_occupancy
  _atom_site_fract_x
  _atom_site_fract_y
  _atom_site_fract_z
  _atom_site_thermal_displace_type
  _atom_site_B_iso_or_equiv
  _atom_site_type_symbol
  Pb1      1.0000 0.02743  0.03806  0.87490  Biso   1.000  Pb
  O1       1.0000 0.91240  0.13530  0.86480  Biso   1.000  O 
  C1       1.0000 0.94210  0.15220  0.94570  Biso   1.000  C 
  O2       1.0000 0.00310  0.11370  0.00820  Biso   1.000  O 
  C2       1.0000 0.89790  0.22240  0.97300  Biso   1.000  C 
  C3       1.0000 0.81960  0.26000  0.90620  Biso   1.000  C 
  H1       1.0000 0.79330  0.24200  0.84500  Biso   1.000  H 
  C4       1.0000 0.77930  0.32510  0.93000  Biso   1.000  C 
  C5       1.0000 0.69720  0.36890  0.86240  Biso   1.000  C 
  C6       1.0000 0.71080  0.45050  0.85280  Biso   1.000  C 
  N1       1.0000 0.64440  0.50400  0.80670  Biso   1.000  N 
  C7       1.0000 0.68570  0.57460  0.81710  Biso   1.000  C 
  C8       1.0000 0.64240  0.64520  0.77850  Biso   1.000  C 
  C9       1.0000 0.54780  0.65720  0.72780  Biso   1.000  C 
  C10      1.0000 0.50180  0.73070  0.68460  Biso   1.000  C 
  H2       1.0000 0.53240  0.78010  0.69080  Biso   1.000  H 
  C11      1.0000 0.40790  0.71630  0.63410  Biso   1.000  C 
  H3       1.0000 0.36100  0.75340  0.59850  Biso   1.000  H 
  C12      1.0000 0.39190  0.63390  0.64440  Biso   1.000  C 
  C13      1.0000 0.30640  0.59270  0.60440  Biso   1.000  C 
  C14      1.0000 0.21890  0.64190  0.54270  Biso   1.000  C 
  C15      1.0000 0.16680  0.61820  0.45430  Biso   1.000  C 
  H4       1.0000 0.18760  0.57510  0.43080  Biso   1.000  H 
  C16      1.0000 0.08300  0.65760  0.39920  Biso   1.000  C 
  C17      1.0000 0.03530  0.63040  0.30210  Biso   1.000  C 
  O3       1.0000 0.96680  0.67090  0.24210  Biso   1.000  O 
  H5       1.0000 0.90538  0.64380  0.22670  Biso   1.000  H 
  O4       1.0000 0.05120  0.56050  0.28550  Biso   1.000  O 
  Pb2      1.0000 0.97257  0.53806  0.12510  Biso   1.000  Pb
  O5       1.0000 0.99690  0.61370  0.99180  Biso   1.000  O 
  C18      1.0000 0.05790  0.65220  0.05430  Biso   1.000  C 
  O6       1.0000 0.08760  0.63530  0.13520  Biso   1.000  O 
  C19      1.0000 0.10210  0.72240  0.02700  Biso   1.000  C 
  C20      1.0000 0.18040  0.76000  0.09380  Biso   1.000  C 
  H6       1.0000 0.20670  0.74200  0.15500  Biso   1.000  H 
  C21      1.0000 0.22070  0.82510  0.07000  Biso   1.000  C 
  C22      1.0000 0.30280  0.86890  0.13760  Biso   1.000  C 
  C23      1.0000 0.28920  0.95050  0.14720  Biso   1.000  C 
  N2       1.0000 0.35560  0.00400  0.19330  Biso   1.000  N 
  C24      1.0000 0.31430  0.07460  0.18290  Biso   1.000  C 
  C25      1.0000 0.35760  0.14520  0.22150  Biso   1.000  C 
  C26      1.0000 0.45220  0.15720  0.27220  Biso   1.000  C 
  C27      1.0000 0.49820  0.23070  0.31540  Biso   1.000  C 
  H7       1.0000 0.46760  0.28010  0.30920  Biso   1.000  H 
  C28      1.0000 0.59210  0.21630  0.36590  Biso   1.000  C 
  H8       1.0000 0.63900  0.25340  0.40150  Biso   1.000  H 
  C29      1.0000 0.60810  0.13390  0.35560  Biso   1.000  C 
  C30      1.0000 0.69360  0.09270  0.39560  Biso   1.000  C 
  C31      1.0000 0.78110  0.14190  0.45730  Biso   1.000  C 
  C32      1.0000 0.83320  0.11820  0.54570  Biso   1.000  C 
  H9       1.0000 0.81240  0.07510  0.56920  Biso   1.000  H 
  C33      1.0000 0.91700  0.15760  0.60080  Biso   1.000  C 
  C34      1.0000 0.96470  0.13040  0.69790  Biso   1.000  C 
  O7       1.0000 0.94880  0.06050  0.71450  Biso   1.000  O 
  O8       1.0000 0.03320  0.17090  0.75790  Biso   1.000  O 
  H10      1.0000 0.09462  0.14380  0.77330  Biso   1.000  H 
  C35      1.0000 0.94860  0.22030  0.57580  Biso   1.000  C 
  C36      1.0000 0.89510  0.24760  0.48210  Biso   1.000  C 
  C37      1.0000 0.81360  0.20480  0.42700  Biso   1.000  C 
  H11      1.0000 0.77910  0.22040  0.36530  Biso   1.000  H 
  C38      1.0000 0.93120  0.31150  0.44840  Biso   1.000  C 
  O9       1.0000 0.00130  0.35250  0.50260  Biso   1.000  O 
  Pb3      1.0000 0.00575  0.42310  0.35717  Biso   1.000  Pb
  O10      1.0000 0.89200  0.32940  0.36190  Biso   1.000  O 
  O11      1.0000 0.87520  0.50310  0.31420  Biso   1.000  O 
  C39      1.0000 0.89020  0.54920  0.38190  Biso   1.000  C 
  C40      1.0000 0.82600  0.61760  0.36950  Biso   1.000  C 
  C41      1.0000 0.77280  0.64620  0.28180  Biso   1.000  C 
  H12      1.0000 0.77650  0.62220  0.23080  Biso   1.000  H 
  C42      1.0000 0.71420  0.71070  0.27070  Biso   1.000  C 
  C43      1.0000 0.70450  0.74600  0.33880  Biso   1.000  C 
  C44      1.0000 0.63860  0.81660  0.31730  Biso   1.000  C 
  C45      1.0000 0.54340  0.80610  0.26510  Biso   1.000  C 
  C46      1.0000 0.49850  0.73310  0.22350  Biso   1.000  C 
  H13      1.0000 0.52950  0.68380  0.23130  Biso   1.000  H 
  C47      1.0000 0.40320  0.74690  0.17070  Biso   1.000  C 
  H14      1.0000 0.35660  0.71030  0.13350  Biso   1.000  H 
  C48      1.0000 0.38870  0.83130  0.18450  Biso   1.000  C 
  N3       1.0000 0.47780  0.86430  0.24120  Biso   1.000  N 
  Zn1      1.0000 0.50060  0.98320  0.25950  Biso   1.000  Zn
  N4       1.0000 0.64050  0.96070  0.34660  Biso   1.000  N 
  C49      1.0000 0.68460  0.88950  0.35280  Biso   1.000  C 
  C50      1.0000 0.78650  0.90120  0.39890  Biso   1.000  C 
  H15      1.0000 0.83420  0.86260  0.41040  Biso   1.000  H 
  C51      1.0000 0.80040  0.97830  0.42250  Biso   1.000  C 
  C52      1.0000 0.71010  0.01590  0.39110  Biso   1.000  C 
  H16      1.0000 0.86040  0.00300  0.45470  Biso   1.000  H 
  O12      1.0000 0.52670  0.00150  0.13080  Biso   1.000  O 
  H17      1.0000 0.54100  0.05240  0.11630  Biso   1.000  H 
  H18      1.0000 0.52310  0.95820  0.09280  Biso   1.000  H 
  N5       1.0000 0.52060  0.09690  0.29750  Biso   1.000  N 
  C53      1.0000 0.75780  0.72130  0.42270  Biso   1.000  C 
  H19      1.0000 0.75410  0.74710  0.47270  Biso   1.000  H 
  C54      1.0000 0.82190  0.65520  0.43920  Biso   1.000  C 
  H20      1.0000 0.86090  0.63870  0.49980  Biso   1.000  H 
  H21      1.0000 0.67900  0.73070  0.21090  Biso   1.000  H 
  O13      1.0000 0.95920  0.53770  0.45960  Biso   1.000  O 
  O14      1.0000 0.91170  0.40470  0.19920  Biso   1.000  O 
  C55      1.0000 0.94410  0.33840  0.18440  Biso   1.000  C 
  O15      1.0000 0.00140  0.29720  0.24640  Biso   1.000  O 
  C56      1.0000 0.89690  0.30930  0.09150  Biso   1.000  C 
  C57      1.0000 0.81940  0.34910  0.02180  Biso   1.000  C 
  H22      1.0000 0.79360  0.39380  0.03780  Biso   1.000  H 
  C58      1.0000 0.93620  0.24580  0.06040  Biso   1.000  C 
  H23      1.0000 0.99110  0.21950  0.10320  Biso   1.000  H 
  H24      1.0000 0.00410  0.24690  0.61710  Biso   1.000  H 
  C59      1.0000 0.29320  0.21620  0.19770  Biso   1.000  C 
  C60      1.0000 0.25130  0.24600  0.10790  Biso   1.000  C 
  H25      1.0000 0.26530  0.22380  0.06180  Biso   1.000  H 
  C61      1.0000 0.18870  0.30900  0.08930  Biso   1.000  C 
  H26      1.0000 0.15480  0.32570  0.02790  Biso   1.000  H 
  C62      1.0000 0.17370  0.34790  0.15550  Biso   1.000  C 
  C63      1.0000 0.20310  0.31210  0.23180  Biso   1.000  C 
  H27      1.0000 0.17900  0.32900  0.27330  Biso   1.000  H 
  C64      1.0000 0.26720  0.25050  0.25850  Biso   1.000  C 
  H28      1.0000 0.29320  0.23220  0.31960  Biso   1.000  H 
  C65      1.0000 0.10830  0.41680  0.13000  Biso   1.000  C 
  O16      1.0000 0.09750  0.45000  0.18910  Biso   1.000  O 
  O17      1.0000 0.05620  0.43190  0.05300  Biso   1.000  O 
  C66      1.0000 0.21240  0.06350  0.12930  Biso   1.000  C 
  H29      1.0000 0.16520  0.10330  0.11210  Biso   1.000  H 
  C67      1.0000 0.19750  0.98870  0.10890  Biso   1.000  C 
  H30      1.0000 0.13760  0.96420  0.07520  Biso   1.000  H 
  C68      1.0000 0.18060  0.84910  0.97820  Biso   1.000  C 
  H31      1.0000 0.20640  0.89380  0.96220  Biso   1.000  H 
  C69      1.0000 0.10310  0.80930  0.90850  Biso   1.000  C 
  C70      1.0000 0.06380  0.74580  0.93960  Biso   1.000  C 
  H32      1.0000 0.00890  0.71950  0.89680  Biso   1.000  H 
  C71      1.0000 0.05590  0.83840  0.81560  Biso   1.000  C 
  O18      1.0000 0.99860  0.79720  0.75360  Biso   1.000  O 
  O19      1.0000 0.08830  0.90470  0.80080  Biso   1.000  O 
  Pb4      1.0000 0.99425  0.92310  0.64283  Biso   1.000  Pb
  O20      1.0000 0.99870  0.85250  0.49740  Biso   1.000  O 
  C72      1.0000 0.06880  0.81150  0.55160  Biso   1.000  C 
  O21      1.0000 0.10800  0.82940  0.63810  Biso   1.000  O 
  C73      1.0000 0.10490  0.74760  0.51790  Biso   1.000  C 
  C74      1.0000 0.18640  0.70480  0.57300  Biso   1.000  C 
  H33      1.0000 0.22090  0.72040  0.63470  Biso   1.000  H 
  C75      1.0000 0.05140  0.72030  0.42420  Biso   1.000  C 
  H34      1.0000 0.99590  0.74690  0.38290  Biso   1.000  H 
  O22      1.0000 0.12480  0.00310  0.68580  Biso   1.000  O 
  C76      1.0000 0.10980  0.04920  0.61810  Biso   1.000  C 
  C77      1.0000 0.17400  0.11760  0.63050  Biso   1.000  C 
  C78      1.0000 0.17810  0.15520  0.56080  Biso   1.000  C 
  H35      1.0000 0.13910  0.13870  0.50020  Biso   1.000  H 
  C79      1.0000 0.24220  0.22130  0.57730  Biso   1.000  C 
  H36      1.0000 0.24590  0.24710  0.52730  Biso   1.000  H 
  C80      1.0000 0.29550  0.24600  0.66120  Biso   1.000  C 
  C81      1.0000 0.36140  0.31660  0.68270  Biso   1.000  C 
  C82      1.0000 0.45660  0.30610  0.73490  Biso   1.000  C 
  C83      1.0000 0.50150  0.23310  0.77650  Biso   1.000  C 
  H37      1.0000 0.47050  0.18380  0.76870  Biso   1.000  H 
  C84      1.0000 0.59680  0.24690  0.82930  Biso   1.000  C 
  H38      1.0000 0.64340  0.21030  0.86650  Biso   1.000  H 
  C85      1.0000 0.61130  0.33130  0.81550  Biso   1.000  C 
  N6       1.0000 0.52220  0.36430  0.75880  Biso   1.000  N 
  Zn2      1.0000 0.49940  0.48320  0.74050  Biso   1.000  Zn
  N7       1.0000 0.35950  0.46070  0.65340  Biso   1.000  N 
  C86      1.0000 0.31540  0.38950  0.64720  Biso   1.000  C 
  C87      1.0000 0.21350  0.40120  0.60110  Biso   1.000  C 
  H39      1.0000 0.16580  0.36260  0.58960  Biso   1.000  H 
  C88      1.0000 0.19960  0.47830  0.57750  Biso   1.000  C 
  H40      1.0000 0.13960  0.50300  0.54530  Biso   1.000  H 
  C89      1.0000 0.28990  0.51590  0.60890  Biso   1.000  C 
  O23      1.0000 0.47330  0.50150  0.86920  Biso   1.000  O 
  H41      1.0000 0.45900  0.55240  0.88370  Biso   1.000  H 
  H42      1.0000 0.47690  0.45820  0.90720  Biso   1.000  H 
  N8       1.0000 0.47940  0.59690  0.70250  Biso   1.000  N 
  C90      1.0000 0.28580  0.21070  0.72930  Biso   1.000  C 
  C91      1.0000 0.22720  0.14620  0.71820  Biso   1.000  C 
  H43      1.0000 0.22350  0.12220  0.76920  Biso   1.000  H 
  H44      1.0000 0.32100  0.23070  0.78910  Biso   1.000  H 
  O24      1.0000 0.04080  0.03770  0.54040  Biso   1.000  O 
  C92      1.0000 0.70680  0.71620  0.80230  Biso   1.000  C 
  C93      1.0000 0.73280  0.75050  0.74150  Biso   1.000  C 
  H45      1.0000 0.70680  0.73220  0.68040  Biso   1.000  H 
  C94      1.0000 0.79690  0.81210  0.76820  Biso   1.000  C 
  H46      1.0000 0.82100  0.82900  0.72670  Biso   1.000  H 
  C95      1.0000 0.82630  0.84790  0.84450  Biso   1.000  C 
  C96      1.0000 0.81130  0.80900  0.91070  Biso   1.000  C 
  H47      1.0000 0.84520  0.82570  0.97210  Biso   1.000  H 
  C97      1.0000 0.74870  0.74600  0.89210  Biso   1.000  C 
  H48      1.0000 0.73470  0.72380  0.93820  Biso   1.000  H 
  C98      1.0000 0.89170  0.91680  0.87000  Biso   1.000  C 
  O25      1.0000 0.90250  0.95000  0.81090  Biso   1.000  O 
  O26      1.0000 0.94380  0.93190  0.94700  Biso   1.000  O 
  C99      1.0000 0.78760  0.56350  0.87070  Biso   1.000  C 
  C100     1.0000 0.80250  0.48870  0.89110  Biso   1.000  C 
  H49      1.0000 0.86240  0.46420  0.92480  Biso   1.000  H 
  H50      1.0000 0.83480  0.60330  0.88790  Biso   1.000  H 
