data_image0
_cell_length_a       10.772
_cell_length_b       18.039
_cell_length_c       18.646
_cell_angle_alpha    90
_cell_angle_beta     90
_cell_angle_gamma    90

_symmetry_space_group_name_H-M    "P 1"
_symmetry_int_tables_number       1

loop_
  _symmetry_equiv_pos_as_xyz
  'x, y, z'

loop_
  _atom_site_label
  _atom_site_occupancy
  _atom_site_fract_x
  _atom_site_fract_y
  _atom_site_fract_z
  _atom_site_thermal_displace_type
  _atom_site_B_iso_or_equiv
  _atom_site_type_symbol
  N1       1.0000 0.19190  0.53932  0.37093  Biso   1.000  N 
  N2       1.0000 0.30810  0.46068  0.87093  Biso   1.000  N 
  N3       1.0000 0.80810  0.03932  0.12907  Biso   1.000  N 
  N4       1.0000 0.69190  0.96068  0.62907  Biso   1.000  N 
  N5       1.0000 0.80810  0.46068  0.62907  Biso   1.000  N 
  N6       1.0000 0.69190  0.53932  0.12907  Biso   1.000  N 
  N7       1.0000 0.19190  0.96068  0.87093  Biso   1.000  N 
  N8       1.0000 0.30810  0.03932  0.37093  Biso   1.000  N 
  C1       1.0000 0.08280  0.54080  0.33860  Biso   1.000  C 
  C2       1.0000 0.41720  0.45920  0.83860  Biso   1.000  C 
  C3       1.0000 0.91720  0.04080  0.16140  Biso   1.000  C 
  C4       1.0000 0.58280  0.95920  0.66140  Biso   1.000  C 
  C5       1.0000 0.91720  0.45920  0.66140  Biso   1.000  C 
  C6       1.0000 0.58280  0.54080  0.16140  Biso   1.000  C 
  C7       1.0000 0.08280  0.95920  0.83860  Biso   1.000  C 
  C8       1.0000 0.41720  0.04080  0.33860  Biso   1.000  C 
  H1       1.0000 0.03090  0.50010  0.33220  Biso   1.000  H 
  H2       1.0000 0.46910  0.49990  0.83220  Biso   1.000  H 
  H3       1.0000 0.96910  0.00010  0.16780  Biso   1.000  H 
  H4       1.0000 0.53090  0.99990  0.66780  Biso   1.000  H 
  H5       1.0000 0.96910  0.49990  0.66780  Biso   1.000  H 
  H6       1.0000 0.53090  0.50010  0.16780  Biso   1.000  H 
  H7       1.0000 0.03090  0.99990  0.83220  Biso   1.000  H 
  H8       1.0000 0.46910  0.00010  0.33220  Biso   1.000  H 
  N9       1.0000 0.15410  0.65530  0.33570  Biso   1.000  N 
  N10      1.0000 0.34590  0.34470  0.83570  Biso   1.000  N 
  N11      1.0000 0.84590  0.15530  0.16430  Biso   1.000  N 
  N12      1.0000 0.65410  0.84470  0.66430  Biso   1.000  N 
  N13      1.0000 0.84590  0.34470  0.66430  Biso   1.000  N 
  N14      1.0000 0.65410  0.65530  0.16430  Biso   1.000  N 
  N15      1.0000 0.15410  0.84470  0.83570  Biso   1.000  N 
  N16      1.0000 0.34590  0.15530  0.33570  Biso   1.000  N 
  N17      1.0000 0.05860  0.60930  0.31641  Biso   1.000  N 
  N18      1.0000 0.44140  0.39070  0.81641  Biso   1.000  N 
  N19      1.0000 0.94140  0.10930  0.18359  Biso   1.000  N 
  N20      1.0000 0.55860  0.89070  0.68359  Biso   1.000  N 
  N21      1.0000 0.94140  0.39070  0.68359  Biso   1.000  N 
  N22      1.0000 0.55860  0.60930  0.18359  Biso   1.000  N 
  N23      1.0000 0.05860  0.89070  0.81641  Biso   1.000  N 
  N24      1.0000 0.44140  0.10930  0.31641  Biso   1.000  N 
  O1       1.0000 0.93660  0.09297  0.60331  Biso   1.000  O 
  O2       1.0000 0.56340  0.90703  0.10331  Biso   1.000  O 
  O3       1.0000 0.06340  0.59297  0.89669  Biso   1.000  O 
  O4       1.0000 0.43660  0.40703  0.39669  Biso   1.000  O 
  O5       1.0000 0.06340  0.90703  0.39669  Biso   1.000  O 
  O6       1.0000 0.43660  0.09297  0.89669  Biso   1.000  O 
  O7       1.0000 0.93660  0.40703  0.10331  Biso   1.000  O 
  O8       1.0000 0.56340  0.59297  0.60331  Biso   1.000  O 
  C9       1.0000 0.00350  0.04570  0.63460  Biso   1.000  C 
  C10      1.0000 0.49650  0.95430  0.13460  Biso   1.000  C 
  C11      1.0000 0.99650  0.54570  0.86540  Biso   1.000  C 
  C12      1.0000 0.50350  0.45430  0.36540  Biso   1.000  C 
  C13      1.0000 0.99650  0.95430  0.36540  Biso   1.000  C 
  C14      1.0000 0.50350  0.04570  0.86540  Biso   1.000  C 
  C15      1.0000 0.00350  0.45430  0.13460  Biso   1.000  C 
  C16      1.0000 0.49650  0.54570  0.63460  Biso   1.000  C 
  C17      1.0000 0.12910  0.07130  0.66080  Biso   1.000  C 
  C18      1.0000 0.37090  0.92870  0.16080  Biso   1.000  C 
  C19      1.0000 0.87090  0.57130  0.83920  Biso   1.000  C 
  C20      1.0000 0.62910  0.42870  0.33920  Biso   1.000  C 
  C21      1.0000 0.87090  0.92870  0.33920  Biso   1.000  C 
  C22      1.0000 0.62910  0.07130  0.83920  Biso   1.000  C 
  C23      1.0000 0.12910  0.42870  0.16080  Biso   1.000  C 
  C24      1.0000 0.37090  0.57130  0.66080  Biso   1.000  C 
  O9       1.0000 0.97390  0.98120  0.64730  Biso   1.000  O 
  O10      1.0000 0.52610  0.01880  0.14730  Biso   1.000  O 
  O11      1.0000 0.02610  0.48120  0.85270  Biso   1.000  O 
  O12      1.0000 0.47390  0.51880  0.35270  Biso   1.000  O 
  O13      1.0000 0.02610  0.01880  0.35270  Biso   1.000  O 
  O14      1.0000 0.47390  0.98120  0.85270  Biso   1.000  O 
  O15      1.0000 0.97390  0.51880  0.14730  Biso   1.000  O 
  O16      1.0000 0.52610  0.48120  0.64730  Biso   1.000  O 
  Zn1      1.0000 0.21801  0.95986  0.42866  Biso   1.000  Zn
  Zn2      1.0000 0.28199  0.04014  0.92866  Biso   1.000  Zn
  Zn3      1.0000 0.78199  0.45986  0.07134  Biso   1.000  Zn
  Zn4      1.0000 0.71801  0.54014  0.57134  Biso   1.000  Zn
  Zn5      1.0000 0.78199  0.04014  0.57134  Biso   1.000  Zn
  Zn6      1.0000 0.71801  0.95986  0.07134  Biso   1.000  Zn
  Zn7      1.0000 0.21801  0.54014  0.92866  Biso   1.000  Zn
  Zn8      1.0000 0.28199  0.45986  0.42866  Biso   1.000  Zn
  S1       1.0000 0.28441  0.12311  0.73702  Biso   1.000  S 
  S2       1.0000 0.21559  0.87689  0.23702  Biso   1.000  S 
  S3       1.0000 0.71559  0.62311  0.76298  Biso   1.000  S 
  S4       1.0000 0.78441  0.37689  0.26298  Biso   1.000  S 
  S5       1.0000 0.71559  0.87689  0.26298  Biso   1.000  S 
  S6       1.0000 0.78441  0.12311  0.76298  Biso   1.000  S 
  S7       1.0000 0.28441  0.37689  0.23702  Biso   1.000  S 
  S8       1.0000 0.21559  0.62311  0.73702  Biso   1.000  S 
  N25      1.0000 0.48210  0.79311  0.45109  Biso   1.000  N 
  N26      1.0000 0.01790  0.20689  0.95109  Biso   1.000  N 
  N27      1.0000 0.51790  0.29311  0.04891  Biso   1.000  N 
  N28      1.0000 0.98210  0.70689  0.54891  Biso   1.000  N 
  N29      1.0000 0.51790  0.20689  0.54891  Biso   1.000  N 
  N30      1.0000 0.98210  0.79311  0.04891  Biso   1.000  N 
  N31      1.0000 0.48210  0.70689  0.95109  Biso   1.000  N 
  N32      1.0000 0.01790  0.29311  0.45109  Biso   1.000  N 
  N33      1.0000 0.33280  0.87024  0.42747  Biso   1.000  N 
  N34      1.0000 0.16720  0.12976  0.92747  Biso   1.000  N 
  N35      1.0000 0.66720  0.37024  0.07253  Biso   1.000  N 
  N36      1.0000 0.83280  0.62976  0.57253  Biso   1.000  N 
  N37      1.0000 0.66720  0.12976  0.57253  Biso   1.000  N 
  N38      1.0000 0.83280  0.87024  0.07253  Biso   1.000  N 
  N39      1.0000 0.33280  0.62976  0.92747  Biso   1.000  N 
  N40      1.0000 0.16720  0.37024  0.42747  Biso   1.000  N 
  C25      1.0000 0.79410  0.76280  0.41700  Biso   1.000  C 
  C26      1.0000 0.70590  0.23720  0.91700  Biso   1.000  C 
  C27      1.0000 0.20590  0.26280  0.08300  Biso   1.000  C 
  C28      1.0000 0.29410  0.73720  0.58300  Biso   1.000  C 
  C29      1.0000 0.20590  0.23720  0.58300  Biso   1.000  C 
  C30      1.0000 0.29410  0.76280  0.08300  Biso   1.000  C 
  C31      1.0000 0.79410  0.73720  0.91700  Biso   1.000  C 
  C32      1.0000 0.70590  0.26280  0.41700  Biso   1.000  C 
  H9       1.0000 0.81240  0.80600  0.44210  Biso   1.000  H 
  H10      1.0000 0.68760  0.19400  0.94210  Biso   1.000  H 
  H11      1.0000 0.18760  0.30600  0.05790  Biso   1.000  H 
  H12      1.0000 0.31240  0.69400  0.55790  Biso   1.000  H 
  H13      1.0000 0.18760  0.19400  0.55790  Biso   1.000  H 
  H14      1.0000 0.31240  0.80600  0.05790  Biso   1.000  H 
  H15      1.0000 0.81240  0.69400  0.94210  Biso   1.000  H 
  H16      1.0000 0.68760  0.30600  0.44210  Biso   1.000  H 
  O17      1.0000 0.17380  0.00833  0.51981  Biso   1.000  O 
  O18      1.0000 0.32620  0.99167  0.01981  Biso   1.000  O 
  O19      1.0000 0.82620  0.50833  0.98019  Biso   1.000  O 
  O20      1.0000 0.67380  0.49167  0.48019  Biso   1.000  O 
  O21      1.0000 0.82620  0.99167  0.48019  Biso   1.000  O 
  O22      1.0000 0.67380  0.00833  0.98019  Biso   1.000  O 
  O23      1.0000 0.17380  0.49167  0.01981  Biso   1.000  O 
  O24      1.0000 0.32620  0.50833  0.51981  Biso   1.000  O 
  N41      1.0000 0.34190  0.08340  0.66600  Biso   1.000  N 
  N42      1.0000 0.15810  0.91660  0.16600  Biso   1.000  N 
  N43      1.0000 0.65810  0.58340  0.83400  Biso   1.000  N 
  N44      1.0000 0.84190  0.41660  0.33400  Biso   1.000  N 
  N45      1.0000 0.65810  0.91660  0.33400  Biso   1.000  N 
  N46      1.0000 0.84190  0.08340  0.83400  Biso   1.000  N 
  N47      1.0000 0.34190  0.41660  0.16600  Biso   1.000  N 
  N48      1.0000 0.15810  0.58340  0.66600  Biso   1.000  N 
  C33      1.0000 0.24640  0.05760  0.62840  Biso   1.000  C 
  C34      1.0000 0.25360  0.94240  0.12840  Biso   1.000  C 
  C35      1.0000 0.75360  0.55760  0.87160  Biso   1.000  C 
  C36      1.0000 0.74640  0.44240  0.37160  Biso   1.000  C 
  C37      1.0000 0.75360  0.94240  0.37160  Biso   1.000  C 
  C38      1.0000 0.74640  0.05760  0.87160  Biso   1.000  C 
  C39      1.0000 0.24640  0.44240  0.12840  Biso   1.000  C 
  C40      1.0000 0.25360  0.55760  0.62840  Biso   1.000  C 
  C41      1.0000 0.27050  0.01930  0.55790  Biso   1.000  C 
  C42      1.0000 0.22950  0.98070  0.05790  Biso   1.000  C 
  C43      1.0000 0.72950  0.51930  0.94210  Biso   1.000  C 
  C44      1.0000 0.77050  0.48070  0.44210  Biso   1.000  C 
  C45      1.0000 0.72950  0.98070  0.44210  Biso   1.000  C 
  C46      1.0000 0.77050  0.01930  0.94210  Biso   1.000  C 
  C47      1.0000 0.27050  0.48070  0.05790  Biso   1.000  C 
  C48      1.0000 0.22950  0.51930  0.55790  Biso   1.000  C 
  C49      1.0000 0.85450  0.67030  0.33080  Biso   1.000  C 
  C50      1.0000 0.64550  0.32970  0.83080  Biso   1.000  C 
  C51      1.0000 0.14550  0.17030  0.16920  Biso   1.000  C 
  C52      1.0000 0.35450  0.82970  0.66920  Biso   1.000  C 
  C53      1.0000 0.14550  0.32970  0.66920  Biso   1.000  C 
  C54      1.0000 0.35450  0.67030  0.16920  Biso   1.000  C 
  C55      1.0000 0.85450  0.82970  0.83080  Biso   1.000  C 
  C56      1.0000 0.64550  0.17030  0.33080  Biso   1.000  C 
  O25      1.0000 0.37630  0.00170  0.54182  Biso   1.000  O 
  O26      1.0000 0.12370  0.99830  0.04182  Biso   1.000  O 
  O27      1.0000 0.62370  0.50170  0.95818  Biso   1.000  O 
  O28      1.0000 0.87630  0.49830  0.45818  Biso   1.000  O 
  O29      1.0000 0.62370  0.99830  0.45818  Biso   1.000  O 
  O30      1.0000 0.87630  0.00170  0.95818  Biso   1.000  O 
  O31      1.0000 0.37630  0.49830  0.04182  Biso   1.000  O 
  O32      1.0000 0.12370  0.50170  0.54182  Biso   1.000  O 
  N49      1.0000 0.13690  0.10780  0.72238  Biso   1.000  N 
  N50      1.0000 0.36310  0.89220  0.22238  Biso   1.000  N 
  N51      1.0000 0.86310  0.60780  0.77762  Biso   1.000  N 
  N52      1.0000 0.63690  0.39220  0.27762  Biso   1.000  N 
  N53      1.0000 0.86310  0.89220  0.27762  Biso   1.000  N 
  N54      1.0000 0.63690  0.10780  0.77762  Biso   1.000  N 
  N55      1.0000 0.13690  0.39220  0.22238  Biso   1.000  N 
  N56      1.0000 0.36310  0.60780  0.72238  Biso   1.000  N 
  C57      1.0000 0.87880  0.73510  0.36870  Biso   1.000  C 
  C58      1.0000 0.62120  0.26490  0.86870  Biso   1.000  C 
  C59      1.0000 0.12120  0.23510  0.13130  Biso   1.000  C 
  C60      1.0000 0.37880  0.76490  0.63130  Biso   1.000  C 
  C61      1.0000 0.12120  0.26490  0.63130  Biso   1.000  C 
  C62      1.0000 0.37880  0.73510  0.13130  Biso   1.000  C 
  C63      1.0000 0.87880  0.76490  0.86870  Biso   1.000  C 
  C64      1.0000 0.62120  0.23510  0.36870  Biso   1.000  C 
  H17      1.0000 0.95330  0.76000  0.36130  Biso   1.000  H 
  H18      1.0000 0.54670  0.24000  0.86130  Biso   1.000  H 
  H19      1.0000 0.04670  0.26000  0.13870  Biso   1.000  H 
  H20      1.0000 0.45330  0.74000  0.63870  Biso   1.000  H 
  H21      1.0000 0.04670  0.24000  0.63870  Biso   1.000  H 
  H22      1.0000 0.45330  0.76000  0.13870  Biso   1.000  H 
  H23      1.0000 0.95330  0.74000  0.86130  Biso   1.000  H 
  H24      1.0000 0.54670  0.26000  0.36130  Biso   1.000  H 
  C65      1.0000 0.23180  0.61070  0.36830  Biso   1.000  C 
  C66      1.0000 0.26820  0.38930  0.86830  Biso   1.000  C 
  C67      1.0000 0.76820  0.11070  0.13170  Biso   1.000  C 
  C68      1.0000 0.73180  0.88930  0.63170  Biso   1.000  C 
  C69      1.0000 0.76820  0.38930  0.63170  Biso   1.000  C 
  C70      1.0000 0.73180  0.61070  0.13170  Biso   1.000  C 
  C71      1.0000 0.23180  0.88930  0.86830  Biso   1.000  C 
  C72      1.0000 0.26820  0.11070  0.36830  Biso   1.000  C 
  H25      1.0000 0.30690  0.62640  0.38780  Biso   1.000  H 
  H26      1.0000 0.19310  0.37360  0.88780  Biso   1.000  H 
  H27      1.0000 0.69310  0.12640  0.11220  Biso   1.000  H 
  H28      1.0000 0.80690  0.87360  0.61220  Biso   1.000  H 
  H29      1.0000 0.69310  0.37360  0.61220  Biso   1.000  H 
  H30      1.0000 0.80690  0.62640  0.11220  Biso   1.000  H 
  H31      1.0000 0.30690  0.87360  0.88780  Biso   1.000  H 
  H32      1.0000 0.19310  0.12640  0.38780  Biso   1.000  H 
  C73      1.0000 0.31250  0.80320  0.39710  Biso   1.000  C 
  C74      1.0000 0.18750  0.19680  0.89710  Biso   1.000  C 
  C75      1.0000 0.68750  0.30320  0.10290  Biso   1.000  C 
  C76      1.0000 0.81250  0.69680  0.60290  Biso   1.000  C 
  C77      1.0000 0.68750  0.19680  0.60290  Biso   1.000  C 
  C78      1.0000 0.81250  0.80320  0.10290  Biso   1.000  C 
  C79      1.0000 0.31250  0.69680  0.89710  Biso   1.000  C 
  C80      1.0000 0.18750  0.30320  0.39710  Biso   1.000  C 
  H33      1.0000 0.24290  0.79280  0.36940  Biso   1.000  H 
  H34      1.0000 0.25710  0.20720  0.86940  Biso   1.000  H 
  H35      1.0000 0.75710  0.29280  0.13060  Biso   1.000  H 
  H36      1.0000 0.74290  0.70720  0.63060  Biso   1.000  H 
  H37      1.0000 0.75710  0.20720  0.63060  Biso   1.000  H 
  H38      1.0000 0.74290  0.79280  0.13060  Biso   1.000  H 
  H39      1.0000 0.24290  0.70720  0.86940  Biso   1.000  H 
  H40      1.0000 0.25710  0.29280  0.36940  Biso   1.000  H 
  C81      1.0000 0.68190  0.72710  0.42890  Biso   1.000  C 
  C82      1.0000 0.81810  0.27290  0.92890  Biso   1.000  C 
  C83      1.0000 0.31810  0.22710  0.07110  Biso   1.000  C 
  C84      1.0000 0.18190  0.77290  0.57110  Biso   1.000  C 
  C85      1.0000 0.31810  0.27290  0.57110  Biso   1.000  C 
  C86      1.0000 0.18190  0.72710  0.07110  Biso   1.000  C 
  C87      1.0000 0.68190  0.77290  0.92890  Biso   1.000  C 
  C88      1.0000 0.81810  0.22710  0.42890  Biso   1.000  C 
  N57      1.0000 0.39940  0.75430  0.41040  Biso   1.000  N 
  N58      1.0000 0.10060  0.24570  0.91040  Biso   1.000  N 
  N59      1.0000 0.60060  0.25430  0.08960  Biso   1.000  N 
  N60      1.0000 0.89940  0.74570  0.58960  Biso   1.000  N 
  N61      1.0000 0.60060  0.24570  0.58960  Biso   1.000  N 
  N62      1.0000 0.89940  0.75430  0.08960  Biso   1.000  N 
  N63      1.0000 0.39940  0.74570  0.91040  Biso   1.000  N 
  N64      1.0000 0.10060  0.25430  0.41040  Biso   1.000  N 
  C89      1.0000 0.59070  0.75630  0.48320  Biso   1.000  C 
  C90      1.0000 0.90930  0.24370  0.98320  Biso   1.000  C 
  C91      1.0000 0.40930  0.25630  0.01680  Biso   1.000  C 
  C92      1.0000 0.09070  0.74370  0.51680  Biso   1.000  C 
  C93      1.0000 0.40930  0.24370  0.51680  Biso   1.000  C 
  C94      1.0000 0.09070  0.75630  0.01680  Biso   1.000  C 
  C95      1.0000 0.59070  0.74370  0.98320  Biso   1.000  C 
  C96      1.0000 0.90930  0.25630  0.48320  Biso   1.000  C 
  H41      1.0000 0.56220  0.71540  0.51270  Biso   1.000  H 
  H42      1.0000 0.93780  0.28460  0.01270  Biso   1.000  H 
  H43      1.0000 0.43780  0.21540  0.98730  Biso   1.000  H 
  H44      1.0000 0.06220  0.78460  0.48730  Biso   1.000  H 
  H45      1.0000 0.43780  0.28460  0.48730  Biso   1.000  H 
  H46      1.0000 0.06220  0.71540  0.98730  Biso   1.000  H 
  H47      1.0000 0.56220  0.78460  0.01270  Biso   1.000  H 
  H48      1.0000 0.93780  0.21540  0.51270  Biso   1.000  H 
  H49      1.0000 0.63290  0.79130  0.51430  Biso   1.000  H 
  H50      1.0000 0.86710  0.20870  0.01430  Biso   1.000  H 
  H51      1.0000 0.36710  0.29130  0.98570  Biso   1.000  H 
  H52      1.0000 0.13290  0.70870  0.48570  Biso   1.000  H 
  H53      1.0000 0.36710  0.20870  0.48570  Biso   1.000  H 
  H54      1.0000 0.13290  0.79130  0.98570  Biso   1.000  H 
  H55      1.0000 0.63290  0.70870  0.01430  Biso   1.000  H 
  H56      1.0000 0.86710  0.29130  0.51430  Biso   1.000  H 
  C97      1.0000 0.65690  0.66240  0.39130  Biso   1.000  C 
  C98      1.0000 0.84310  0.33760  0.89130  Biso   1.000  C 
  C99      1.0000 0.34310  0.16240  0.10870  Biso   1.000  C 
  C100     1.0000 0.15690  0.83760  0.60870  Biso   1.000  C 
  C101     1.0000 0.34310  0.33760  0.60870  Biso   1.000  C 
  C102     1.0000 0.15690  0.66240  0.10870  Biso   1.000  C 
  C103     1.0000 0.65690  0.83760  0.89130  Biso   1.000  C 
  C104     1.0000 0.84310  0.16240  0.39130  Biso   1.000  C 
  H57      1.0000 0.58260  0.63740  0.39890  Biso   1.000  H 
  H58      1.0000 0.91740  0.36260  0.89890  Biso   1.000  H 
  H59      1.0000 0.41740  0.13740  0.10110  Biso   1.000  H 
  H60      1.0000 0.08260  0.86260  0.60110  Biso   1.000  H 
  H61      1.0000 0.41740  0.36260  0.60110  Biso   1.000  H 
  H62      1.0000 0.08260  0.63740  0.10110  Biso   1.000  H 
  H63      1.0000 0.58260  0.86260  0.89890  Biso   1.000  H 
  H64      1.0000 0.91740  0.13740  0.39890  Biso   1.000  H 
  C105     1.0000 0.44100  0.86130  0.46110  Biso   1.000  C 
  C106     1.0000 0.05900  0.13870  0.96110  Biso   1.000  C 
  C107     1.0000 0.55900  0.36130  0.03890  Biso   1.000  C 
  C108     1.0000 0.94100  0.63870  0.53890  Biso   1.000  C 
  C109     1.0000 0.55900  0.13870  0.53890  Biso   1.000  C 
  C110     1.0000 0.94100  0.86130  0.03890  Biso   1.000  C 
  C111     1.0000 0.44100  0.63870  0.96110  Biso   1.000  C 
  C112     1.0000 0.05900  0.36130  0.46110  Biso   1.000  C 
  H65      1.0000 0.48150  0.89760  0.48770  Biso   1.000  H 
  H66      1.0000 0.01850  0.10240  0.98770  Biso   1.000  H 
  H67      1.0000 0.51850  0.39760  0.01230  Biso   1.000  H 
  H68      1.0000 0.98150  0.60240  0.51230  Biso   1.000  H 
  H69      1.0000 0.51850  0.10240  0.51230  Biso   1.000  H 
  H70      1.0000 0.98150  0.89760  0.01230  Biso   1.000  H 
  H71      1.0000 0.48150  0.60240  0.98770  Biso   1.000  H 
  H72      1.0000 0.01850  0.39760  0.48770  Biso   1.000  H 
  C113     1.0000 0.74210  0.63490  0.34240  Biso   1.000  C 
  C114     1.0000 0.75790  0.36510  0.84240  Biso   1.000  C 
  C115     1.0000 0.25790  0.13490  0.15760  Biso   1.000  C 
  C116     1.0000 0.24210  0.86510  0.65760  Biso   1.000  C 
  C117     1.0000 0.25790  0.36510  0.65760  Biso   1.000  C 
  C118     1.0000 0.24210  0.63490  0.15760  Biso   1.000  C 
  C119     1.0000 0.74210  0.86510  0.84240  Biso   1.000  C 
  C120     1.0000 0.75790  0.13490  0.34240  Biso   1.000  C 
  H73      1.0000 0.72360  0.59190  0.31700  Biso   1.000  H 
  H74      1.0000 0.77640  0.40810  0.81700  Biso   1.000  H 
  H75      1.0000 0.27640  0.09190  0.18300  Biso   1.000  H 
  H76      1.0000 0.22360  0.90810  0.68300  Biso   1.000  H 
  H77      1.0000 0.27640  0.40810  0.68300  Biso   1.000  H 
  H78      1.0000 0.22360  0.59190  0.18300  Biso   1.000  H 
  H79      1.0000 0.72360  0.90810  0.81700  Biso   1.000  H 
  H80      1.0000 0.77640  0.09190  0.31700  Biso   1.000  H 
  C121     1.0000 0.94830  0.63850  0.27900  Biso   1.000  C 
  C122     1.0000 0.55170  0.36150  0.77900  Biso   1.000  C 
  C123     1.0000 0.05170  0.13850  0.22100  Biso   1.000  C 
  C124     1.0000 0.44830  0.86150  0.72100  Biso   1.000  C 
  C125     1.0000 0.05170  0.36150  0.72100  Biso   1.000  C 
  C126     1.0000 0.44830  0.63850  0.22100  Biso   1.000  C 
  C127     1.0000 0.94830  0.86150  0.77900  Biso   1.000  C 
  C128     1.0000 0.55170  0.13850  0.27900  Biso   1.000  C 
  H81      1.0000 0.90990  0.59900  0.25170  Biso   1.000  H 
  H82      1.0000 0.59010  0.40100  0.75170  Biso   1.000  H 
  H83      1.0000 0.09010  0.09900  0.24830  Biso   1.000  H 
  H84      1.0000 0.40990  0.90100  0.74830  Biso   1.000  H 
  H85      1.0000 0.09010  0.40100  0.74830  Biso   1.000  H 
  H86      1.0000 0.40990  0.59900  0.24830  Biso   1.000  H 
  H87      1.0000 0.90990  0.90100  0.75170  Biso   1.000  H 
  H88      1.0000 0.59010  0.09900  0.25170  Biso   1.000  H 
  H89      1.0000 0.97390  0.67690  0.24570  Biso   1.000  H 
  H90      1.0000 0.52610  0.32310  0.74570  Biso   1.000  H 
  H91      1.0000 0.02610  0.17690  0.25430  Biso   1.000  H 
  H92      1.0000 0.47390  0.82310  0.75430  Biso   1.000  H 
  H93      1.0000 0.02610  0.32310  0.75430  Biso   1.000  H 
  H94      1.0000 0.47390  0.67690  0.25430  Biso   1.000  H 
  H95      1.0000 0.97390  0.82310  0.74570  Biso   1.000  H 
  H96      1.0000 0.52610  0.17690  0.24570  Biso   1.000  H 
