data_image0
_cell_length_a       13.4006
_cell_length_b       13.3794
_cell_length_c       20.2814
_cell_angle_alpha    90
_cell_angle_beta     90
_cell_angle_gamma    90

_symmetry_space_group_name_H-M    "P 1"
_symmetry_int_tables_number       1

loop_
  _symmetry_equiv_pos_as_xyz
  'x, y, z'

loop_
  _atom_site_label
  _atom_site_occupancy
  _atom_site_fract_x
  _atom_site_fract_y
  _atom_site_fract_z
  _atom_site_thermal_displace_type
  _atom_site_B_iso_or_equiv
  _atom_site_type_symbol
  C1       1.0000 0.38905  0.71000  0.69351  Biso   1.000  C 
  C2       1.0000 0.31427  0.64740  0.65519  Biso   1.000  C 
  C3       1.0000 0.30957  0.65640  0.58673  Biso   1.000  C 
  H1       1.0000 0.35530  0.69710  0.56400  Biso   1.000  H 
  C4       1.0000 0.23598  0.60410  0.55274  Biso   1.000  C 
  N1       1.0000 0.22818  0.61434  0.48185  Biso   1.000  N 
  C5       1.0000 0.14950  0.65420  0.44801  Biso   1.000  C 
  N2       1.0000 0.16776  0.64888  0.38443  Biso   1.000  N 
  Cu1      1.0000 0.06344  0.66443  0.30312  Biso   1.000  Cu
  Cu2      1.0000 0.93656  0.66443  0.19688  Biso   1.000  Cu
  N3       1.0000 0.83224  0.64888  0.11557  Biso   1.000  N 
  N4       1.0000 0.73875  0.60400  0.12409  Biso   1.000  N 
  C6       1.0000 0.70430  0.58490  0.06489  Biso   1.000  C 
  C7       1.0000 0.60670  0.53660  0.04919  Biso   1.000  C 
  H2       1.0000 0.58940  0.48970  0.08390  Biso   1.000  H 
  H3       1.0000 0.55530  0.58740  0.04590  Biso   1.000  H 
  H4       1.0000 0.61190  0.50120  0.00760  Biso   1.000  H 
  N5       1.0000 0.77182  0.61434  0.01815  Biso   1.000  N 
  C8       1.0000 0.76402  0.60410  0.94726  Biso   1.000  C 
  C9       1.0000 0.69043  0.65640  0.91327  Biso   1.000  C 
  H5       1.0000 0.64470  0.69710  0.93600  Biso   1.000  H 
  C10      1.0000 0.68573  0.64740  0.84481  Biso   1.000  C 
  C11      1.0000 0.75307  0.58660  0.81140  Biso   1.000  C 
  H6       1.0000 0.74930  0.58080  0.76530  Biso   1.000  H 
  C12      1.0000 0.82589  0.53420  0.84600  Biso   1.000  C 
  C13      1.0000 0.89665  0.46516  0.81014  Biso   1.000  C 
  O1       1.0000 0.87394  0.44252  0.75206  Biso   1.000  O 
  Cu3      1.0000 0.93656  0.33557  0.69688  Biso   1.000  Cu
  N6       1.0000 0.83224  0.35112  0.61557  Biso   1.000  N 
  N7       1.0000 0.73875  0.39600  0.62409  Biso   1.000  N 
  C14      1.0000 0.70430  0.41510  0.56489  Biso   1.000  C 
  C15      1.0000 0.60670  0.46340  0.54919  Biso   1.000  C 
  H7       1.0000 0.61190  0.49880  0.50760  Biso   1.000  H 
  H8       1.0000 0.55530  0.41260  0.54590  Biso   1.000  H 
  H9       1.0000 0.58940  0.51030  0.58390  Biso   1.000  H 
  N8       1.0000 0.77182  0.38566  0.51815  Biso   1.000  N 
  C16      1.0000 0.76402  0.39590  0.44726  Biso   1.000  C 
  C17      1.0000 0.69043  0.34360  0.41327  Biso   1.000  C 
  H10      1.0000 0.64470  0.30290  0.43600  Biso   1.000  H 
  C18      1.0000 0.68573  0.35260  0.34481  Biso   1.000  C 
  C19      1.0000 0.75307  0.41340  0.31140  Biso   1.000  C 
  H11      1.0000 0.74930  0.41920  0.26530  Biso   1.000  H 
  C20      1.0000 0.82589  0.46580  0.34600  Biso   1.000  C 
  C21      1.0000 0.83170  0.45690  0.41482  Biso   1.000  C 
  H12      1.0000 0.88080  0.49190  0.43860  Biso   1.000  H 
  C22      1.0000 0.89665  0.53484  0.31014  Biso   1.000  C 
  O2       1.0000 0.87394  0.55748  0.25206  Biso   1.000  O 
  O3       1.0000 0.97183  0.56483  0.34191  Biso   1.000  O 
  C23      1.0000 0.61095  0.29000  0.30649  Biso   1.000  C 
  O4       1.0000 0.63611  0.26507  0.24918  Biso   1.000  O 
  Cu4      1.0000 0.56344  0.16443  0.19688  Biso   1.000  Cu
  N9       1.0000 0.66776  0.14888  0.11557  Biso   1.000  N 
  N10      1.0000 0.76125  0.10400  0.12409  Biso   1.000  N 
  C24      1.0000 0.79570  0.08490  0.06489  Biso   1.000  C 
  C25      1.0000 0.89330  0.03660  0.04919  Biso   1.000  C 
  H13      1.0000 0.94470  0.08740  0.04590  Biso   1.000  H 
  H14      1.0000 0.88810  0.00120  0.00760  Biso   1.000  H 
  H15      1.0000 0.91060  0.98970  0.08390  Biso   1.000  H 
  N11      1.0000 0.72818  0.11434  0.01815  Biso   1.000  N 
  C26      1.0000 0.73598  0.10410  0.94726  Biso   1.000  C 
  C27      1.0000 0.80957  0.15640  0.91327  Biso   1.000  C 
  H16      1.0000 0.85530  0.19710  0.93600  Biso   1.000  H 
  C28      1.0000 0.81427  0.14740  0.84481  Biso   1.000  C 
  C29      1.0000 0.74693  0.08660  0.81140  Biso   1.000  C 
  H17      1.0000 0.75070  0.08080  0.76530  Biso   1.000  H 
  C30      1.0000 0.67411  0.03420  0.84600  Biso   1.000  C 
  C31      1.0000 0.66830  0.04310  0.91482  Biso   1.000  C 
  H18      1.0000 0.61920  0.00810  0.93860  Biso   1.000  H 
  C32      1.0000 0.60335  0.96516  0.81014  Biso   1.000  C 
  O5       1.0000 0.62606  0.94252  0.75206  Biso   1.000  O 
  Cu5      1.0000 0.56344  0.83557  0.69688  Biso   1.000  Cu
  Cu6      1.0000 0.43656  0.83557  0.80312  Biso   1.000  Cu
  N12      1.0000 0.33224  0.85112  0.88443  Biso   1.000  N 
  N13      1.0000 0.23875  0.89600  0.87591  Biso   1.000  N 
  C33      1.0000 0.20430  0.91510  0.93511  Biso   1.000  C 
  C34      1.0000 0.10670  0.96340  0.95081  Biso   1.000  C 
  H19      1.0000 0.05530  0.91260  0.95410  Biso   1.000  H 
  H20      1.0000 0.11190  0.99880  0.99240  Biso   1.000  H 
  H21      1.0000 0.08940  0.01030  0.91610  Biso   1.000  H 
  N14      1.0000 0.27182  0.88566  0.98185  Biso   1.000  N 
  C35      1.0000 0.26402  0.89590  0.05274  Biso   1.000  C 
  C36      1.0000 0.19043  0.84360  0.08673  Biso   1.000  C 
  H22      1.0000 0.14470  0.80290  0.06400  Biso   1.000  H 
  C37      1.0000 0.18573  0.85260  0.15519  Biso   1.000  C 
  C38      1.0000 0.25307  0.91340  0.18860  Biso   1.000  C 
  C39      1.0000 0.32589  0.96580  0.15400  Biso   1.000  C 
  C40      1.0000 0.33170  0.95690  0.08518  Biso   1.000  C 
  H23      1.0000 0.38080  0.99190  0.06140  Biso   1.000  H 
  C41      1.0000 0.39665  0.03484  0.18986  Biso   1.000  C 
  O6       1.0000 0.47183  0.06483  0.15809  Biso   1.000  O 
  O7       1.0000 0.37394  0.05748  0.24794  Biso   1.000  O 
  Cu7      1.0000 0.43656  0.16443  0.30312  Biso   1.000  Cu
  N15      1.0000 0.33224  0.14888  0.38443  Biso   1.000  N 
  N16      1.0000 0.23875  0.10400  0.37591  Biso   1.000  N 
  C42      1.0000 0.20430  0.08490  0.43511  Biso   1.000  C 
  C43      1.0000 0.10670  0.03660  0.45081  Biso   1.000  C 
  H24      1.0000 0.05530  0.08740  0.45410  Biso   1.000  H 
  H25      1.0000 0.11190  0.00120  0.49240  Biso   1.000  H 
  H26      1.0000 0.08940  0.98970  0.41610  Biso   1.000  H 
  N17      1.0000 0.27182  0.11434  0.48185  Biso   1.000  N 
  C44      1.0000 0.26402  0.10410  0.55274  Biso   1.000  C 
  C45      1.0000 0.19043  0.15640  0.58673  Biso   1.000  C 
  H27      1.0000 0.14470  0.19710  0.56400  Biso   1.000  H 
  C46      1.0000 0.18573  0.14740  0.65519  Biso   1.000  C 
  C47      1.0000 0.25307  0.08660  0.68860  Biso   1.000  C 
  C48      1.0000 0.32589  0.03420  0.65400  Biso   1.000  C 
  C49      1.0000 0.33170  0.04310  0.58518  Biso   1.000  C 
  H28      1.0000 0.38080  0.00810  0.56140  Biso   1.000  H 
  C50      1.0000 0.39665  0.96516  0.68986  Biso   1.000  C 
  O8       1.0000 0.47183  0.93517  0.65809  Biso   1.000  O 
  O9       1.0000 0.37394  0.94252  0.74794  Biso   1.000  O 
  H29      1.0000 0.24930  0.08080  0.73470  Biso   1.000  H 
  C51      1.0000 0.11095  0.21000  0.69351  Biso   1.000  C 
  O10      1.0000 0.03130  0.23187  0.66430  Biso   1.000  O 
  O11      1.0000 0.13611  0.23493  0.75082  Biso   1.000  O 
  Cu8      1.0000 0.06344  0.33557  0.80312  Biso   1.000  Cu
  O12      1.0000 0.97183  0.43517  0.84191  Biso   1.000  O 
  O13      1.0000 0.96870  0.23187  0.83570  Biso   1.000  O 
  C52      1.0000 0.88905  0.21000  0.80649  Biso   1.000  C 
  O14      1.0000 0.86389  0.23493  0.74918  Biso   1.000  O 
  N18      1.0000 0.16776  0.35112  0.88443  Biso   1.000  N 
  N19      1.0000 0.26125  0.39600  0.87591  Biso   1.000  N 
  C53      1.0000 0.29570  0.41510  0.93511  Biso   1.000  C 
  C54      1.0000 0.39330  0.46340  0.95081  Biso   1.000  C 
  H30      1.0000 0.44470  0.41260  0.95410  Biso   1.000  H 
  H31      1.0000 0.38810  0.49880  0.99240  Biso   1.000  H 
  H32      1.0000 0.41060  0.51030  0.91610  Biso   1.000  H 
  N20      1.0000 0.22818  0.38566  0.98185  Biso   1.000  N 
  C55      1.0000 0.23598  0.39590  0.05274  Biso   1.000  C 
  C56      1.0000 0.30957  0.34360  0.08673  Biso   1.000  C 
  H33      1.0000 0.35530  0.30290  0.06400  Biso   1.000  H 
  C57      1.0000 0.31427  0.35260  0.15519  Biso   1.000  C 
  C58      1.0000 0.24693  0.41340  0.18860  Biso   1.000  C 
  C59      1.0000 0.17411  0.46580  0.15400  Biso   1.000  C 
  C60      1.0000 0.16830  0.45690  0.08518  Biso   1.000  C 
  H34      1.0000 0.11920  0.49190  0.06140  Biso   1.000  H 
  C61      1.0000 0.10335  0.53484  0.18986  Biso   1.000  C 
  O15      1.0000 0.02817  0.56483  0.15809  Biso   1.000  O 
  O16      1.0000 0.12606  0.55748  0.24794  Biso   1.000  O 
  H35      1.0000 0.25070  0.41920  0.23470  Biso   1.000  H 
  C62      1.0000 0.38905  0.29000  0.19351  Biso   1.000  C 
  O17      1.0000 0.46870  0.26813  0.16430  Biso   1.000  O 
  O18      1.0000 0.36389  0.26507  0.25082  Biso   1.000  O 
  C63      1.0000 0.14950  0.34580  0.94801  Biso   1.000  C 
  C64      1.0000 0.05910  0.30230  0.97878  Biso   1.000  C 
  H36      1.0000 0.02950  0.25400  0.94890  Biso   1.000  H 
  H37      1.0000 0.01140  0.35500  0.98790  Biso   1.000  H 
  H38      1.0000 0.07730  0.26930  0.01970  Biso   1.000  H 
  O19      1.0000 0.12606  0.44252  0.74794  Biso   1.000  O 
  C65      1.0000 0.10335  0.46516  0.68986  Biso   1.000  C 
  O20      1.0000 0.02817  0.43517  0.65809  Biso   1.000  O 
  C66      1.0000 0.17411  0.53420  0.65400  Biso   1.000  C 
  C67      1.0000 0.16830  0.54310  0.58518  Biso   1.000  C 
  H39      1.0000 0.11920  0.50810  0.56140  Biso   1.000  H 
  C68      1.0000 0.24693  0.58660  0.68860  Biso   1.000  C 
  H40      1.0000 0.25070  0.58080  0.73470  Biso   1.000  H 
  C69      1.0000 0.35050  0.15420  0.44801  Biso   1.000  C 
  C70      1.0000 0.44090  0.19770  0.47878  Biso   1.000  C 
  H41      1.0000 0.47050  0.24600  0.44890  Biso   1.000  H 
  H42      1.0000 0.48860  0.14500  0.48790  Biso   1.000  H 
  H43      1.0000 0.42270  0.23070  0.51970  Biso   1.000  H 
  O21      1.0000 0.53130  0.26813  0.33570  Biso   1.000  O 
  O22      1.0000 0.52817  0.06483  0.34191  Biso   1.000  O 
  C71      1.0000 0.60335  0.03484  0.31014  Biso   1.000  C 
  O23      1.0000 0.62606  0.05748  0.25206  Biso   1.000  O 
  C72      1.0000 0.67411  0.96580  0.34600  Biso   1.000  C 
  C73      1.0000 0.66830  0.95690  0.41482  Biso   1.000  C 
  C74      1.0000 0.73598  0.89590  0.44726  Biso   1.000  C 
  C75      1.0000 0.80957  0.84360  0.41327  Biso   1.000  C 
  H44      1.0000 0.85530  0.80290  0.43600  Biso   1.000  H 
  C76      1.0000 0.81427  0.85260  0.34481  Biso   1.000  C 
  C77      1.0000 0.74693  0.91340  0.31140  Biso   1.000  C 
  H45      1.0000 0.75070  0.91920  0.26530  Biso   1.000  H 
  C78      1.0000 0.88905  0.79000  0.30649  Biso   1.000  C 
  O24      1.0000 0.86389  0.76507  0.24918  Biso   1.000  O 
  O25      1.0000 0.96870  0.76813  0.33570  Biso   1.000  O 
  N21      1.0000 0.72818  0.88566  0.51815  Biso   1.000  N 
  C79      1.0000 0.64950  0.84580  0.55199  Biso   1.000  C 
  C80      1.0000 0.55910  0.80230  0.52122  Biso   1.000  C 
  H46      1.0000 0.57730  0.76930  0.48030  Biso   1.000  H 
  H47      1.0000 0.51140  0.85500  0.51210  Biso   1.000  H 
  H48      1.0000 0.52950  0.75400  0.55110  Biso   1.000  H 
  N22      1.0000 0.66776  0.85112  0.61557  Biso   1.000  N 
  N23      1.0000 0.76125  0.89600  0.62409  Biso   1.000  N 
  C81      1.0000 0.79570  0.91510  0.56489  Biso   1.000  C 
  C82      1.0000 0.89330  0.96340  0.54919  Biso   1.000  C 
  H49      1.0000 0.94470  0.91260  0.54590  Biso   1.000  H 
  H50      1.0000 0.88810  0.99880  0.50760  Biso   1.000  H 
  H51      1.0000 0.91060  0.01030  0.58390  Biso   1.000  H 
  H52      1.0000 0.61920  0.99190  0.43860  Biso   1.000  H 
  H53      1.0000 0.24930  0.91920  0.23470  Biso   1.000  H 
  C83      1.0000 0.11095  0.79000  0.19351  Biso   1.000  C 
  O26      1.0000 0.03130  0.76813  0.16430  Biso   1.000  O 
  O27      1.0000 0.13611  0.76507  0.25082  Biso   1.000  O 
  C84      1.0000 0.35050  0.84580  0.94801  Biso   1.000  C 
  C85      1.0000 0.44090  0.80230  0.97878  Biso   1.000  C 
  H54      1.0000 0.47050  0.75400  0.94890  Biso   1.000  H 
  H55      1.0000 0.48860  0.85500  0.98790  Biso   1.000  H 
  H56      1.0000 0.42270  0.76930  0.01970  Biso   1.000  H 
  O28      1.0000 0.53130  0.73187  0.83570  Biso   1.000  O 
  C86      1.0000 0.61095  0.71000  0.80649  Biso   1.000  C 
  O29      1.0000 0.63611  0.73493  0.74918  Biso   1.000  O 
  O30      1.0000 0.36389  0.73493  0.75082  Biso   1.000  O 
  O31      1.0000 0.52817  0.93517  0.84191  Biso   1.000  O 
  O32      1.0000 0.46870  0.73187  0.66430  Biso   1.000  O 
  C87      1.0000 0.64950  0.15420  0.05199  Biso   1.000  C 
  C88      1.0000 0.55910  0.19770  0.02122  Biso   1.000  C 
  H57      1.0000 0.52950  0.24600  0.05110  Biso   1.000  H 
  H58      1.0000 0.51140  0.14500  0.01210  Biso   1.000  H 
  H59      1.0000 0.57730  0.23070  0.98030  Biso   1.000  H 
  C89      1.0000 0.85050  0.34580  0.55199  Biso   1.000  C 
  C90      1.0000 0.94090  0.30230  0.52122  Biso   1.000  C 
  H60      1.0000 0.92270  0.26930  0.48030  Biso   1.000  H 
  H61      1.0000 0.98860  0.35500  0.51210  Biso   1.000  H 
  H62      1.0000 0.97050  0.25400  0.55110  Biso   1.000  H 
  C91      1.0000 0.83170  0.54310  0.91482  Biso   1.000  C 
  H63      1.0000 0.88080  0.50810  0.93860  Biso   1.000  H 
  C92      1.0000 0.85050  0.65420  0.05199  Biso   1.000  C 
  C93      1.0000 0.94090  0.69770  0.02122  Biso   1.000  C 
  H64      1.0000 0.97050  0.74600  0.05110  Biso   1.000  H 
  H65      1.0000 0.98860  0.64500  0.01210  Biso   1.000  H 
  H66      1.0000 0.92270  0.73070  0.98030  Biso   1.000  H 
  N24      1.0000 0.26125  0.60400  0.37591  Biso   1.000  N 
  C94      1.0000 0.29570  0.58490  0.43511  Biso   1.000  C 
  C95      1.0000 0.39330  0.53660  0.45081  Biso   1.000  C 
  H67      1.0000 0.41060  0.48970  0.41610  Biso   1.000  H 
  H68      1.0000 0.44470  0.58740  0.45410  Biso   1.000  H 
  H69      1.0000 0.38810  0.50120  0.49240  Biso   1.000  H 
  C96      1.0000 0.05910  0.69770  0.47878  Biso   1.000  C 
  H70      1.0000 0.01140  0.64500  0.48790  Biso   1.000  H 
  H71      1.0000 0.02950  0.74600  0.44890  Biso   1.000  H 
  H72      1.0000 0.07730  0.73070  0.51970  Biso   1.000  H 
