data_image0
_cell_length_a       14.5067
_cell_length_b       14.5067
_cell_length_c       28.888
_cell_angle_alpha    90
_cell_angle_beta     90
_cell_angle_gamma    90

_symmetry_space_group_name_H-M    "P 1"
_symmetry_int_tables_number       1

loop_
  _symmetry_equiv_pos_as_xyz
  'x, y, z'

loop_
  _atom_site_label
  _atom_site_occupancy
  _atom_site_fract_x
  _atom_site_fract_y
  _atom_site_fract_z
  _atom_site_thermal_displace_type
  _atom_site_B_iso_or_equiv
  _atom_site_type_symbol
  Cd1      1.0000 0.33306  0.42944  0.05584  Biso   1.000  Cd
  Cd2      1.0000 0.66694  0.57056  0.55584  Biso   1.000  Cd
  Cd3      1.0000 0.07056  0.83306  0.30584  Biso   1.000  Cd
  Cd4      1.0000 0.92944  0.16694  0.80584  Biso   1.000  Cd
  Cd5      1.0000 0.16694  0.92944  0.19416  Biso   1.000  Cd
  Cd6      1.0000 0.83306  0.07056  0.69416  Biso   1.000  Cd
  Cd7      1.0000 0.42944  0.33306  0.94416  Biso   1.000  Cd
  Cd8      1.0000 0.57056  0.66694  0.44416  Biso   1.000  Cd
  N1       1.0000 0.45080  0.53370  0.06070  Biso   1.000  N 
  N2       1.0000 0.54920  0.46630  0.56070  Biso   1.000  N 
  N3       1.0000 0.96630  0.95080  0.31070  Biso   1.000  N 
  N4       1.0000 0.03370  0.04920  0.81070  Biso   1.000  N 
  N5       1.0000 0.04920  0.03370  0.18930  Biso   1.000  N 
  N6       1.0000 0.95080  0.96630  0.68930  Biso   1.000  N 
  N7       1.0000 0.53370  0.45080  0.93930  Biso   1.000  N 
  N8       1.0000 0.46630  0.54920  0.43930  Biso   1.000  N 
  N9       1.0000 0.22240  0.31570  0.05360  Biso   1.000  N 
  N10      1.0000 0.77760  0.68430  0.55360  Biso   1.000  N 
  N11      1.0000 0.18430  0.72240  0.30360  Biso   1.000  N 
  N12      1.0000 0.81570  0.27760  0.80360  Biso   1.000  N 
  N13      1.0000 0.27760  0.81570  0.19640  Biso   1.000  N 
  N14      1.0000 0.72240  0.18430  0.69640  Biso   1.000  N 
  N15      1.0000 0.31570  0.22240  0.94640  Biso   1.000  N 
  N16      1.0000 0.68430  0.77760  0.44640  Biso   1.000  N 
  O1       1.0000 0.33430  0.37450  0.14120  Biso   1.000  O 
  O2       1.0000 0.66570  0.62550  0.64120  Biso   1.000  O 
  O3       1.0000 0.12550  0.83430  0.39120  Biso   1.000  O 
  O4       1.0000 0.87450  0.16570  0.89120  Biso   1.000  O 
  O5       1.0000 0.16570  0.87450  0.10880  Biso   1.000  O 
  O6       1.0000 0.83430  0.12550  0.60880  Biso   1.000  O 
  O7       1.0000 0.37450  0.33430  0.85880  Biso   1.000  O 
  O8       1.0000 0.62550  0.66570  0.35880  Biso   1.000  O 
  O9       1.0000 0.24610  0.48290  0.11490  Biso   1.000  O 
  O10      1.0000 0.75390  0.51710  0.61490  Biso   1.000  O 
  O11      1.0000 0.01710  0.74610  0.36490  Biso   1.000  O 
  O12      1.0000 0.98290  0.25390  0.86490  Biso   1.000  O 
  O13      1.0000 0.25390  0.98290  0.13510  Biso   1.000  O 
  O14      1.0000 0.74610  0.01710  0.63510  Biso   1.000  O 
  O15      1.0000 0.48290  0.24610  0.88510  Biso   1.000  O 
  O16      1.0000 0.51710  0.75390  0.38510  Biso   1.000  O 
  O17      1.0000 0.76020  0.46100  0.51300  Biso   1.000  O 
  O18      1.0000 0.23980  0.53900  0.01300  Biso   1.000  O 
  O19      1.0000 0.03900  0.26020  0.76300  Biso   1.000  O 
  O20      1.0000 0.96100  0.73980  0.26300  Biso   1.000  O 
  O21      1.0000 0.73980  0.96100  0.73700  Biso   1.000  O 
  O22      1.0000 0.26020  0.03900  0.23700  Biso   1.000  O 
  O23      1.0000 0.46100  0.76020  0.48700  Biso   1.000  O 
  O24      1.0000 0.53900  0.23980  0.98700  Biso   1.000  O 
  O25      1.0000 0.67710  0.55800  0.47200  Biso   1.000  O 
  O26      1.0000 0.32290  0.44200  0.97200  Biso   1.000  O 
  O27      1.0000 0.94200  0.17710  0.72200  Biso   1.000  O 
  O28      1.0000 0.05800  0.82290  0.22200  Biso   1.000  O 
  O29      1.0000 0.82290  0.05800  0.77800  Biso   1.000  O 
  O30      1.0000 0.17710  0.94200  0.27800  Biso   1.000  O 
  O31      1.0000 0.55800  0.67710  0.52800  Biso   1.000  O 
  O32      1.0000 0.44200  0.32290  0.02800  Biso   1.000  O 
  C1       1.0000 0.13700  0.33380  0.05040  Biso   1.000  C 
  C2       1.0000 0.86300  0.66620  0.55040  Biso   1.000  C 
  C3       1.0000 0.16620  0.63700  0.30040  Biso   1.000  C 
  C4       1.0000 0.83380  0.36300  0.80040  Biso   1.000  C 
  C5       1.0000 0.36300  0.83380  0.19960  Biso   1.000  C 
  C6       1.0000 0.63700  0.16620  0.69960  Biso   1.000  C 
  C7       1.0000 0.33380  0.13700  0.94960  Biso   1.000  C 
  C8       1.0000 0.66620  0.86300  0.44960  Biso   1.000  C 
  H1       1.0000 0.11830  0.39470  0.04700  Biso   1.000  H 
  H2       1.0000 0.88170  0.60530  0.54700  Biso   1.000  H 
  H3       1.0000 0.10530  0.61830  0.29700  Biso   1.000  H 
  H4       1.0000 0.89470  0.38170  0.79700  Biso   1.000  H 
  H5       1.0000 0.38170  0.89470  0.20300  Biso   1.000  H 
  H6       1.0000 0.61830  0.10530  0.70300  Biso   1.000  H 
  H7       1.0000 0.39470  0.11830  0.95300  Biso   1.000  H 
  H8       1.0000 0.60530  0.88170  0.45300  Biso   1.000  H 
  C9       1.0000 0.07280  0.26680  0.05180  Biso   1.000  C 
  C10      1.0000 0.92720  0.73320  0.55180  Biso   1.000  C 
  C11      1.0000 0.23320  0.57280  0.30180  Biso   1.000  C 
  C12      1.0000 0.76680  0.42720  0.80180  Biso   1.000  C 
  C13      1.0000 0.42720  0.76680  0.19820  Biso   1.000  C 
  C14      1.0000 0.57280  0.23320  0.69820  Biso   1.000  C 
  C15      1.0000 0.26680  0.07280  0.94820  Biso   1.000  C 
  C16      1.0000 0.73320  0.92720  0.44820  Biso   1.000  C 
  H9       1.0000 0.01170  0.28400  0.04730  Biso   1.000  H 
  H10      1.0000 0.98830  0.71600  0.54730  Biso   1.000  H 
  H11      1.0000 0.21600  0.51170  0.29730  Biso   1.000  H 
  H12      1.0000 0.78400  0.48830  0.79730  Biso   1.000  H 
  H13      1.0000 0.48830  0.78400  0.20270  Biso   1.000  H 
  H14      1.0000 0.51170  0.21600  0.70270  Biso   1.000  H 
  H15      1.0000 0.28400  0.01170  0.95270  Biso   1.000  H 
  H16      1.0000 0.71600  0.98830  0.45270  Biso   1.000  H 
  C17      1.0000 0.08950  0.18080  0.05870  Biso   1.000  C 
  C18      1.0000 0.91050  0.81920  0.55870  Biso   1.000  C 
  C19      1.0000 0.31920  0.58950  0.30870  Biso   1.000  C 
  C20      1.0000 0.68080  0.41050  0.80870  Biso   1.000  C 
  C21      1.0000 0.41050  0.68080  0.19130  Biso   1.000  C 
  C22      1.0000 0.58950  0.31920  0.69130  Biso   1.000  C 
  C23      1.0000 0.18080  0.08950  0.94130  Biso   1.000  C 
  C24      1.0000 0.81920  0.91050  0.44130  Biso   1.000  C 
  C25      1.0000 0.17780  0.15530  0.06210  Biso   1.000  C 
  C26      1.0000 0.82220  0.84470  0.56210  Biso   1.000  C 
  C27      1.0000 0.34470  0.67780  0.31210  Biso   1.000  C 
  C28      1.0000 0.65530  0.32220  0.81210  Biso   1.000  C 
  C29      1.0000 0.32220  0.65530  0.18790  Biso   1.000  C 
  C30      1.0000 0.67780  0.34470  0.68790  Biso   1.000  C 
  C31      1.0000 0.15530  0.17780  0.93790  Biso   1.000  C 
  C32      1.0000 0.84470  0.82220  0.43790  Biso   1.000  C 
  H17      1.0000 0.19420  0.09400  0.06640  Biso   1.000  H 
  H18      1.0000 0.80580  0.90600  0.56640  Biso   1.000  H 
  H19      1.0000 0.40600  0.69420  0.31640  Biso   1.000  H 
  H20      1.0000 0.59400  0.30580  0.81640  Biso   1.000  H 
  H21      1.0000 0.30580  0.59400  0.18360  Biso   1.000  H 
  H22      1.0000 0.69420  0.40600  0.68360  Biso   1.000  H 
  H23      1.0000 0.09400  0.19420  0.93360  Biso   1.000  H 
  H24      1.0000 0.90600  0.80580  0.43360  Biso   1.000  H 
  C33      1.0000 0.24560  0.22550  0.05890  Biso   1.000  C 
  C34      1.0000 0.75440  0.77450  0.55890  Biso   1.000  C 
  C35      1.0000 0.27450  0.74560  0.30890  Biso   1.000  C 
  C36      1.0000 0.72550  0.25440  0.80890  Biso   1.000  C 
  C37      1.0000 0.25440  0.72550  0.19110  Biso   1.000  C 
  C38      1.0000 0.74560  0.27450  0.69110  Biso   1.000  C 
  C39      1.0000 0.22550  0.24560  0.94110  Biso   1.000  C 
  C40      1.0000 0.77450  0.75440  0.44110  Biso   1.000  C 
  H25      1.0000 0.30760  0.20940  0.06040  Biso   1.000  H 
  H26      1.0000 0.69240  0.79060  0.56040  Biso   1.000  H 
  H27      1.0000 0.29060  0.80760  0.31040  Biso   1.000  H 
  H28      1.0000 0.70940  0.19240  0.81040  Biso   1.000  H 
  H29      1.0000 0.19240  0.70940  0.18960  Biso   1.000  H 
  H30      1.0000 0.80760  0.29060  0.68960  Biso   1.000  H 
  H31      1.0000 0.20940  0.30760  0.93960  Biso   1.000  H 
  H32      1.0000 0.79060  0.69240  0.43960  Biso   1.000  H 
  C41      1.0000 0.99100  0.13630  0.05550  Biso   1.000  C 
  C42      1.0000 0.00900  0.86370  0.55550  Biso   1.000  C 
  C43      1.0000 0.36370  0.49100  0.30550  Biso   1.000  C 
  C44      1.0000 0.63630  0.50900  0.80550  Biso   1.000  C 
  C45      1.0000 0.50900  0.63630  0.19450  Biso   1.000  C 
  C46      1.0000 0.49100  0.36370  0.69450  Biso   1.000  C 
  C47      1.0000 0.13630  0.99100  0.94450  Biso   1.000  C 
  C48      1.0000 0.86370  0.00900  0.44450  Biso   1.000  C 
  H33      1.0000 0.93750  0.16920  0.04930  Biso   1.000  H 
  H34      1.0000 0.06250  0.83080  0.54930  Biso   1.000  H 
  H35      1.0000 0.33080  0.43750  0.29930  Biso   1.000  H 
  H36      1.0000 0.66920  0.56250  0.79930  Biso   1.000  H 
  H37      1.0000 0.56250  0.66920  0.20070  Biso   1.000  H 
  H38      1.0000 0.43750  0.33080  0.70070  Biso   1.000  H 
  H39      1.0000 0.16920  0.93750  0.95070  Biso   1.000  H 
  H40      1.0000 0.83080  0.06250  0.45070  Biso   1.000  H 
  C49      1.0000 0.99400  0.05000  0.06240  Biso   1.000  C 
  C50      1.0000 0.00600  0.95000  0.56240  Biso   1.000  C 
  C51      1.0000 0.45000  0.49400  0.31240  Biso   1.000  C 
  C52      1.0000 0.55000  0.50600  0.81240  Biso   1.000  C 
  C53      1.0000 0.50600  0.55000  0.18760  Biso   1.000  C 
  C54      1.0000 0.49400  0.45000  0.68760  Biso   1.000  C 
  C55      1.0000 0.05000  0.99400  0.93760  Biso   1.000  C 
  C56      1.0000 0.95000  0.00600  0.43760  Biso   1.000  C 
  H41      1.0000 0.04820  0.02110  0.07110  Biso   1.000  H 
  H42      1.0000 0.95180  0.97890  0.57110  Biso   1.000  H 
  H43      1.0000 0.47890  0.54820  0.32110  Biso   1.000  H 
  H44      1.0000 0.52110  0.45180  0.82110  Biso   1.000  H 
  H45      1.0000 0.45180  0.52110  0.17890  Biso   1.000  H 
  H46      1.0000 0.54820  0.47890  0.67890  Biso   1.000  H 
  H47      1.0000 0.02110  0.04820  0.92890  Biso   1.000  H 
  H48      1.0000 0.97890  0.95180  0.42890  Biso   1.000  H 
  C57      1.0000 0.75480  0.94090  0.03340  Biso   1.000  C 
  C58      1.0000 0.24520  0.05910  0.53340  Biso   1.000  C 
  C59      1.0000 0.55910  0.25480  0.28340  Biso   1.000  C 
  C60      1.0000 0.44090  0.74520  0.78340  Biso   1.000  C 
  C61      1.0000 0.74520  0.44090  0.21660  Biso   1.000  C 
  C62      1.0000 0.25480  0.55910  0.71660  Biso   1.000  C 
  C63      1.0000 0.94090  0.75480  0.96660  Biso   1.000  C 
  C64      1.0000 0.05910  0.24520  0.46660  Biso   1.000  C 
  H49      1.0000 0.70160  0.95070  0.01610  Biso   1.000  H 
  H50      1.0000 0.29840  0.04930  0.51610  Biso   1.000  H 
  H51      1.0000 0.54930  0.20160  0.26610  Biso   1.000  H 
  H52      1.0000 0.45070  0.79840  0.76610  Biso   1.000  H 
  H53      1.0000 0.79840  0.45070  0.23390  Biso   1.000  H 
  H54      1.0000 0.20160  0.54930  0.73390  Biso   1.000  H 
  H55      1.0000 0.95070  0.70160  0.98390  Biso   1.000  H 
  H56      1.0000 0.04930  0.29840  0.48390  Biso   1.000  H 
  C65      1.0000 0.82330  0.00800  0.03510  Biso   1.000  C 
  C66      1.0000 0.17670  0.99200  0.53510  Biso   1.000  C 
  C67      1.0000 0.49200  0.32330  0.28510  Biso   1.000  C 
  C68      1.0000 0.50800  0.67670  0.78510  Biso   1.000  C 
  C69      1.0000 0.67670  0.50800  0.21490  Biso   1.000  C 
  C70      1.0000 0.32330  0.49200  0.71490  Biso   1.000  C 
  C71      1.0000 0.00800  0.82330  0.96490  Biso   1.000  C 
  C72      1.0000 0.99200  0.17670  0.46490  Biso   1.000  C 
  H57      1.0000 0.81240  0.06460  0.02100  Biso   1.000  H 
  H58      1.0000 0.18760  0.93540  0.52100  Biso   1.000  H 
  H59      1.0000 0.43540  0.31240  0.27100  Biso   1.000  H 
  H60      1.0000 0.56460  0.68760  0.77100  Biso   1.000  H 
  H61      1.0000 0.68760  0.56460  0.22900  Biso   1.000  H 
  H62      1.0000 0.31240  0.43540  0.72900  Biso   1.000  H 
  H63      1.0000 0.06460  0.81240  0.97900  Biso   1.000  H 
  H64      1.0000 0.93540  0.18760  0.47900  Biso   1.000  H 
  C73      1.0000 0.90430  0.99420  0.05610  Biso   1.000  C 
  C74      1.0000 0.09570  0.00580  0.55610  Biso   1.000  C 
  C75      1.0000 0.50580  0.40430  0.30610  Biso   1.000  C 
  C76      1.0000 0.49420  0.59570  0.80610  Biso   1.000  C 
  C77      1.0000 0.59570  0.49420  0.19390  Biso   1.000  C 
  C78      1.0000 0.40430  0.50580  0.69390  Biso   1.000  C 
  C79      1.0000 0.99420  0.90430  0.94390  Biso   1.000  C 
  C80      1.0000 0.00580  0.09570  0.44390  Biso   1.000  C 
  C81      1.0000 0.91590  0.91010  0.08010  Biso   1.000  C 
  C82      1.0000 0.08410  0.08990  0.58010  Biso   1.000  C 
  C83      1.0000 0.58990  0.41590  0.33010  Biso   1.000  C 
  C84      1.0000 0.41010  0.58410  0.83010  Biso   1.000  C 
  C85      1.0000 0.58410  0.41010  0.16990  Biso   1.000  C 
  C86      1.0000 0.41590  0.58990  0.66990  Biso   1.000  C 
  C87      1.0000 0.91010  0.91590  0.91990  Biso   1.000  C 
  C88      1.0000 0.08990  0.08410  0.41990  Biso   1.000  C 
  H65      1.0000 0.97080  0.89710  0.09540  Biso   1.000  H 
  H66      1.0000 0.02920  0.10290  0.59540  Biso   1.000  H 
  H67      1.0000 0.60290  0.47080  0.34540  Biso   1.000  H 
  H68      1.0000 0.39710  0.52920  0.84540  Biso   1.000  H 
  H69      1.0000 0.52920  0.39710  0.15460  Biso   1.000  H 
  H70      1.0000 0.47080  0.60290  0.65460  Biso   1.000  H 
  H71      1.0000 0.89710  0.97080  0.90460  Biso   1.000  H 
  H72      1.0000 0.10290  0.02920  0.40460  Biso   1.000  H 
  C89      1.0000 0.84310  0.84650  0.08040  Biso   1.000  C 
  C90      1.0000 0.15690  0.15350  0.58040  Biso   1.000  C 
  C91      1.0000 0.65350  0.34310  0.33040  Biso   1.000  C 
  C92      1.0000 0.34650  0.65690  0.83040  Biso   1.000  C 
  C93      1.0000 0.65690  0.34650  0.16960  Biso   1.000  C 
  C94      1.0000 0.34310  0.65350  0.66960  Biso   1.000  C 
  C95      1.0000 0.84650  0.84310  0.91960  Biso   1.000  C 
  C96      1.0000 0.15350  0.15690  0.41960  Biso   1.000  C 
  H73      1.0000 0.84940  0.79250  0.09740  Biso   1.000  H 
  H74      1.0000 0.15060  0.20750  0.59740  Biso   1.000  H 
  H75      1.0000 0.70750  0.34940  0.34740  Biso   1.000  H 
  H76      1.0000 0.29250  0.65060  0.84740  Biso   1.000  H 
  H77      1.0000 0.65060  0.29250  0.15260  Biso   1.000  H 
  H78      1.0000 0.34940  0.70750  0.65260  Biso   1.000  H 
  H79      1.0000 0.79250  0.84940  0.90260  Biso   1.000  H 
  H80      1.0000 0.20750  0.15060  0.40260  Biso   1.000  H 
  C97      1.0000 0.76620  0.86050  0.05730  Biso   1.000  C 
  C98      1.0000 0.23380  0.13950  0.55730  Biso   1.000  C 
  C99      1.0000 0.63950  0.26620  0.30730  Biso   1.000  C 
  C100     1.0000 0.36050  0.73380  0.80730  Biso   1.000  C 
  C101     1.0000 0.73380  0.36050  0.19270  Biso   1.000  C 
  C102     1.0000 0.26620  0.63950  0.69270  Biso   1.000  C 
  C103     1.0000 0.86050  0.76620  0.94270  Biso   1.000  C 
  C104     1.0000 0.13950  0.23380  0.44270  Biso   1.000  C 
  C105     1.0000 0.68600  0.79930  0.05760  Biso   1.000  C 
  C106     1.0000 0.31400  0.20070  0.55760  Biso   1.000  C 
  C107     1.0000 0.70070  0.18600  0.30760  Biso   1.000  C 
  C108     1.0000 0.29930  0.81400  0.80760  Biso   1.000  C 
  C109     1.0000 0.81400  0.29930  0.19240  Biso   1.000  C 
  C110     1.0000 0.18600  0.70070  0.69240  Biso   1.000  C 
  C111     1.0000 0.79930  0.68600  0.94240  Biso   1.000  C 
  C112     1.0000 0.20070  0.31400  0.44240  Biso   1.000  C 
  H81      1.0000 0.63100  0.82550  0.04770  Biso   1.000  H 
  H82      1.0000 0.36900  0.17450  0.54770  Biso   1.000  H 
  H83      1.0000 0.67450  0.13100  0.29770  Biso   1.000  H 
  H84      1.0000 0.32550  0.86900  0.79770  Biso   1.000  H 
  H85      1.0000 0.86900  0.32550  0.20230  Biso   1.000  H 
  H86      1.0000 0.13100  0.67450  0.70230  Biso   1.000  H 
  H87      1.0000 0.82550  0.63100  0.95230  Biso   1.000  H 
  H88      1.0000 0.17450  0.36900  0.45230  Biso   1.000  H 
  C113     1.0000 0.68160  0.71770  0.06930  Biso   1.000  C 
  C114     1.0000 0.31840  0.28230  0.56930  Biso   1.000  C 
  C115     1.0000 0.78230  0.18160  0.31930  Biso   1.000  C 
  C116     1.0000 0.21770  0.81840  0.81930  Biso   1.000  C 
  C117     1.0000 0.81840  0.21770  0.18070  Biso   1.000  C 
  C118     1.0000 0.18160  0.78230  0.68070  Biso   1.000  C 
  C119     1.0000 0.71770  0.68160  0.93070  Biso   1.000  C 
  C120     1.0000 0.28230  0.31840  0.43070  Biso   1.000  C 
  H89      1.0000 0.73400  0.69020  0.08170  Biso   1.000  H 
  H90      1.0000 0.26600  0.30980  0.58170  Biso   1.000  H 
  H91      1.0000 0.80980  0.23400  0.33170  Biso   1.000  H 
  H92      1.0000 0.19020  0.76600  0.83170  Biso   1.000  H 
  H93      1.0000 0.76600  0.19020  0.16830  Biso   1.000  H 
  H94      1.0000 0.23400  0.80980  0.66830  Biso   1.000  H 
  H95      1.0000 0.69020  0.73400  0.91830  Biso   1.000  H 
  H96      1.0000 0.30980  0.26600  0.41830  Biso   1.000  H 
  C121     1.0000 0.59550  0.65990  0.06460  Biso   1.000  C 
  C122     1.0000 0.40450  0.34010  0.56460  Biso   1.000  C 
  C123     1.0000 0.84010  0.09550  0.31460  Biso   1.000  C 
  C124     1.0000 0.15990  0.90450  0.81460  Biso   1.000  C 
  C125     1.0000 0.90450  0.15990  0.18540  Biso   1.000  C 
  C126     1.0000 0.09550  0.84010  0.68540  Biso   1.000  C 
  C127     1.0000 0.65990  0.59550  0.93540  Biso   1.000  C 
  C128     1.0000 0.34010  0.40450  0.43540  Biso   1.000  C 
  C129     1.0000 0.50490  0.68920  0.06450  Biso   1.000  C 
  C130     1.0000 0.49510  0.31080  0.56450  Biso   1.000  C 
  C131     1.0000 0.81080  0.00490  0.31450  Biso   1.000  C 
  C132     1.0000 0.18920  0.99510  0.81450  Biso   1.000  C 
  C133     1.0000 0.99510  0.18920  0.18550  Biso   1.000  C 
  C134     1.0000 0.00490  0.81080  0.68550  Biso   1.000  C 
  C135     1.0000 0.68920  0.50490  0.93550  Biso   1.000  C 
  C136     1.0000 0.31080  0.49510  0.43550  Biso   1.000  C 
  H97      1.0000 0.49170  0.75180  0.06580  Biso   1.000  H 
  H98      1.0000 0.50830  0.24820  0.56580  Biso   1.000  H 
  H99      1.0000 0.74820  0.99170  0.31580  Biso   1.000  H 
  H100     1.0000 0.25180  0.00830  0.81580  Biso   1.000  H 
  H101     1.0000 0.00830  0.25180  0.18420  Biso   1.000  H 
  H102     1.0000 0.99170  0.74820  0.68420  Biso   1.000  H 
  H103     1.0000 0.75180  0.49170  0.93420  Biso   1.000  H 
  H104     1.0000 0.24820  0.50830  0.43420  Biso   1.000  H 
  C137     1.0000 0.43220  0.62460  0.06250  Biso   1.000  C 
  C138     1.0000 0.56780  0.37540  0.56250  Biso   1.000  C 
  C139     1.0000 0.87540  0.93220  0.31250  Biso   1.000  C 
  C140     1.0000 0.12460  0.06780  0.81250  Biso   1.000  C 
  C141     1.0000 0.06780  0.12460  0.18750  Biso   1.000  C 
  C142     1.0000 0.93220  0.87540  0.68750  Biso   1.000  C 
  C143     1.0000 0.62460  0.43220  0.93750  Biso   1.000  C 
  C144     1.0000 0.37540  0.56780  0.43750  Biso   1.000  C 
  H105     1.0000 0.37140  0.64480  0.06250  Biso   1.000  H 
  H106     1.0000 0.62860  0.35520  0.56250  Biso   1.000  H 
  H107     1.0000 0.85520  0.87140  0.31250  Biso   1.000  H 
  H108     1.0000 0.14480  0.12860  0.81250  Biso   1.000  H 
  H109     1.0000 0.12860  0.14480  0.18750  Biso   1.000  H 
  H110     1.0000 0.87140  0.85520  0.68750  Biso   1.000  H 
  H111     1.0000 0.64480  0.37140  0.93750  Biso   1.000  H 
  H112     1.0000 0.35520  0.62860  0.43750  Biso   1.000  H 
  C145     1.0000 0.53890  0.50930  0.05990  Biso   1.000  C 
  C146     1.0000 0.46110  0.49070  0.55990  Biso   1.000  C 
  C147     1.0000 0.99070  0.03890  0.30990  Biso   1.000  C 
  C148     1.0000 0.00930  0.96110  0.80990  Biso   1.000  C 
  C149     1.0000 0.96110  0.00930  0.19010  Biso   1.000  C 
  C150     1.0000 0.03890  0.99070  0.69010  Biso   1.000  C 
  C151     1.0000 0.50930  0.53890  0.94010  Biso   1.000  C 
  C152     1.0000 0.49070  0.46110  0.44010  Biso   1.000  C 
  H113     1.0000 0.55090  0.44710  0.05500  Biso   1.000  H 
  H114     1.0000 0.44910  0.55290  0.55500  Biso   1.000  H 
  H115     1.0000 0.05290  0.05090  0.30500  Biso   1.000  H 
  H116     1.0000 0.94710  0.94910  0.80500  Biso   1.000  H 
  H117     1.0000 0.94910  0.94710  0.19500  Biso   1.000  H 
  H118     1.0000 0.05090  0.05290  0.69500  Biso   1.000  H 
  H119     1.0000 0.44710  0.55090  0.94500  Biso   1.000  H 
  H120     1.0000 0.55290  0.44910  0.44500  Biso   1.000  H 
  C153     1.0000 0.61270  0.56370  0.06540  Biso   1.000  C 
  C154     1.0000 0.38730  0.43630  0.56540  Biso   1.000  C 
  C155     1.0000 0.93630  0.11270  0.31540  Biso   1.000  C 
  C156     1.0000 0.06370  0.88730  0.81540  Biso   1.000  C 
  C157     1.0000 0.88730  0.06370  0.18460  Biso   1.000  C 
  C158     1.0000 0.11270  0.93630  0.68460  Biso   1.000  C 
  C159     1.0000 0.56370  0.61270  0.93460  Biso   1.000  C 
  C160     1.0000 0.43630  0.38730  0.43460  Biso   1.000  C 
  H121     1.0000 0.67160  0.53980  0.06950  Biso   1.000  H 
  H122     1.0000 0.32840  0.46020  0.56950  Biso   1.000  H 
  H123     1.0000 0.96020  0.17160  0.31950  Biso   1.000  H 
  H124     1.0000 0.03980  0.82840  0.81950  Biso   1.000  H 
  H125     1.0000 0.82840  0.03980  0.18050  Biso   1.000  H 
  H126     1.0000 0.17160  0.96020  0.68050  Biso   1.000  H 
  H127     1.0000 0.53980  0.67160  0.93050  Biso   1.000  H 
  H128     1.0000 0.46020  0.32840  0.43050  Biso   1.000  H 
  C161     1.0000 0.73790  0.49560  0.47600  Biso   1.000  C 
  C162     1.0000 0.26210  0.50440  0.97600  Biso   1.000  C 
  C163     1.0000 0.00440  0.23790  0.72600  Biso   1.000  C 
  C164     1.0000 0.99560  0.76210  0.22600  Biso   1.000  C 
  C165     1.0000 0.76210  0.99560  0.77400  Biso   1.000  C 
  C166     1.0000 0.23790  0.00440  0.27400  Biso   1.000  C 
  C167     1.0000 0.49560  0.73790  0.52400  Biso   1.000  C 
  C168     1.0000 0.50440  0.26210  0.02400  Biso   1.000  C 
  C169     1.0000 0.79330  0.47410  0.43110  Biso   1.000  C 
  C170     1.0000 0.20670  0.52590  0.93110  Biso   1.000  C 
  C171     1.0000 0.02590  0.29330  0.68110  Biso   1.000  C 
  C172     1.0000 0.97410  0.70670  0.18110  Biso   1.000  C 
  C173     1.0000 0.70670  0.97410  0.81890  Biso   1.000  C 
  C174     1.0000 0.29330  0.02590  0.31890  Biso   1.000  C 
  C175     1.0000 0.47410  0.79330  0.56890  Biso   1.000  C 
  C176     1.0000 0.52590  0.20670  0.06890  Biso   1.000  C 
  C177     1.0000 0.78270  0.52420  0.39130  Biso   1.000  C 
  C178     1.0000 0.21730  0.47580  0.89130  Biso   1.000  C 
  C179     1.0000 0.97580  0.28270  0.64130  Biso   1.000  C 
  C180     1.0000 0.02420  0.71730  0.14130  Biso   1.000  C 
  C181     1.0000 0.71730  0.02420  0.85870  Biso   1.000  C 
  C182     1.0000 0.28270  0.97580  0.35870  Biso   1.000  C 
  C183     1.0000 0.52420  0.78270  0.60870  Biso   1.000  C 
  C184     1.0000 0.47580  0.21730  0.10870  Biso   1.000  C 
  H129     1.0000 0.73560  0.56770  0.39040  Biso   1.000  H 
  H130     1.0000 0.26440  0.43230  0.89040  Biso   1.000  H 
  H131     1.0000 0.93230  0.23560  0.64040  Biso   1.000  H 
  H132     1.0000 0.06770  0.76440  0.14040  Biso   1.000  H 
  H133     1.0000 0.76440  0.06770  0.85960  Biso   1.000  H 
  H134     1.0000 0.23560  0.93230  0.35960  Biso   1.000  H 
  H135     1.0000 0.56770  0.73560  0.60960  Biso   1.000  H 
  H136     1.0000 0.43230  0.26440  0.10960  Biso   1.000  H 
  C185     1.0000 0.83800  0.51430  0.35190  Biso   1.000  C 
  C186     1.0000 0.16200  0.48570  0.85190  Biso   1.000  C 
  C187     1.0000 0.98570  0.33800  0.60190  Biso   1.000  C 
  C188     1.0000 0.01430  0.66200  0.10190  Biso   1.000  C 
  C189     1.0000 0.66200  0.01430  0.89810  Biso   1.000  C 
  C190     1.0000 0.33800  0.98570  0.39810  Biso   1.000  C 
  C191     1.0000 0.51430  0.83800  0.64810  Biso   1.000  C 
  C192     1.0000 0.48570  0.16200  0.14810  Biso   1.000  C 
  H137     1.0000 0.83150  0.55430  0.32690  Biso   1.000  H 
  H138     1.0000 0.16850  0.44570  0.82690  Biso   1.000  H 
  H139     1.0000 0.94570  0.33150  0.57690  Biso   1.000  H 
  H140     1.0000 0.05430  0.66850  0.07690  Biso   1.000  H 
  H141     1.0000 0.66850  0.05430  0.92310  Biso   1.000  H 
  H142     1.0000 0.33150  0.94570  0.42310  Biso   1.000  H 
  H143     1.0000 0.55430  0.83150  0.67310  Biso   1.000  H 
  H144     1.0000 0.44570  0.16850  0.17310  Biso   1.000  H 
  C193     1.0000 0.90020  0.44660  0.35060  Biso   1.000  C 
  C194     1.0000 0.09980  0.55340  0.85060  Biso   1.000  C 
  C195     1.0000 0.05340  0.40020  0.60060  Biso   1.000  C 
  C196     1.0000 0.94660  0.59980  0.10060  Biso   1.000  C 
  C197     1.0000 0.59980  0.94660  0.89940  Biso   1.000  C 
  C198     1.0000 0.40020  0.05340  0.39940  Biso   1.000  C 
  C199     1.0000 0.44660  0.90020  0.64940  Biso   1.000  C 
  C200     1.0000 0.55340  0.09980  0.14940  Biso   1.000  C 
  C201     1.0000 0.90830  0.38820  0.38720  Biso   1.000  C 
  C202     1.0000 0.09170  0.61180  0.88720  Biso   1.000  C 
  C203     1.0000 0.11180  0.40830  0.63720  Biso   1.000  C 
  C204     1.0000 0.88820  0.59170  0.13720  Biso   1.000  C 
  C205     1.0000 0.59170  0.88820  0.86280  Biso   1.000  C 
  C206     1.0000 0.40830  0.11180  0.36280  Biso   1.000  C 
  C207     1.0000 0.38820  0.90830  0.61280  Biso   1.000  C 
  C208     1.0000 0.61180  0.09170  0.11280  Biso   1.000  C 
  H145     1.0000 0.94860  0.33860  0.38470  Biso   1.000  H 
  H146     1.0000 0.05140  0.66140  0.88470  Biso   1.000  H 
  H147     1.0000 0.16140  0.44860  0.63470  Biso   1.000  H 
  H148     1.0000 0.83860  0.55140  0.13470  Biso   1.000  H 
  H149     1.0000 0.55140  0.83860  0.86530  Biso   1.000  H 
  H150     1.0000 0.44860  0.16140  0.36530  Biso   1.000  H 
  H151     1.0000 0.33860  0.94860  0.61530  Biso   1.000  H 
  H152     1.0000 0.66140  0.05140  0.11530  Biso   1.000  H 
  C209     1.0000 0.85480  0.40020  0.43160  Biso   1.000  C 
  C210     1.0000 0.14520  0.59980  0.93160  Biso   1.000  C 
  C211     1.0000 0.09980  0.35480  0.68160  Biso   1.000  C 
  C212     1.0000 0.90020  0.64520  0.18160  Biso   1.000  C 
  C213     1.0000 0.64520  0.90020  0.81840  Biso   1.000  C 
  C214     1.0000 0.35480  0.09980  0.31840  Biso   1.000  C 
  C215     1.0000 0.40020  0.85480  0.56840  Biso   1.000  C 
  C216     1.0000 0.59980  0.14520  0.06840  Biso   1.000  C 
  H153     1.0000 0.86230  0.36170  0.45710  Biso   1.000  H 
  H154     1.0000 0.13770  0.63830  0.95710  Biso   1.000  H 
  H155     1.0000 0.13830  0.36230  0.70710  Biso   1.000  H 
  H156     1.0000 0.86170  0.63770  0.20710  Biso   1.000  H 
  H157     1.0000 0.63770  0.86170  0.79290  Biso   1.000  H 
  H158     1.0000 0.36230  0.13830  0.29290  Biso   1.000  H 
  H159     1.0000 0.36170  0.86230  0.54290  Biso   1.000  H 
  H160     1.0000 0.63830  0.13770  0.04290  Biso   1.000  H 
  C217     1.0000 0.96220  0.44100  0.30800  Biso   1.000  C 
  C218     1.0000 0.03780  0.55900  0.80800  Biso   1.000  C 
  C219     1.0000 0.05900  0.46220  0.55800  Biso   1.000  C 
  C220     1.0000 0.94100  0.53780  0.05800  Biso   1.000  C 
  C221     1.0000 0.53780  0.94100  0.94200  Biso   1.000  C 
  C222     1.0000 0.46220  0.05900  0.44200  Biso   1.000  C 
  C223     1.0000 0.44100  0.96220  0.69200  Biso   1.000  C 
  C224     1.0000 0.55900  0.03780  0.19200  Biso   1.000  C 
  H161     1.0000 0.95200  0.48340  0.28440  Biso   1.000  H 
  H162     1.0000 0.04800  0.51660  0.78440  Biso   1.000  H 
  H163     1.0000 0.01660  0.45200  0.53440  Biso   1.000  H 
  H164     1.0000 0.98340  0.54800  0.03440  Biso   1.000  H 
  H165     1.0000 0.54800  0.98340  0.96560  Biso   1.000  H 
  H166     1.0000 0.45200  0.01660  0.46560  Biso   1.000  H 
  H167     1.0000 0.48340  0.95200  0.71560  Biso   1.000  H 
  H168     1.0000 0.51660  0.04800  0.21560  Biso   1.000  H 
  C225     1.0000 0.02330  0.38590  0.30270  Biso   1.000  C 
  C226     1.0000 0.97670  0.61410  0.80270  Biso   1.000  C 
  C227     1.0000 0.11410  0.52330  0.55270  Biso   1.000  C 
  C228     1.0000 0.88590  0.47670  0.05270  Biso   1.000  C 
  C229     1.0000 0.47670  0.88590  0.94730  Biso   1.000  C 
  C230     1.0000 0.52330  0.11410  0.44730  Biso   1.000  C 
  C231     1.0000 0.38590  0.02330  0.69730  Biso   1.000  C 
  C232     1.0000 0.61410  0.97670  0.19730  Biso   1.000  C 
  H169     1.0000 0.03580  0.34150  0.32510  Biso   1.000  H 
  H170     1.0000 0.96420  0.65850  0.82510  Biso   1.000  H 
  H171     1.0000 0.15850  0.53580  0.57510  Biso   1.000  H 
  H172     1.0000 0.84150  0.46420  0.07510  Biso   1.000  H 
  H173     1.0000 0.46420  0.84150  0.92490  Biso   1.000  H 
  H174     1.0000 0.53580  0.15850  0.42490  Biso   1.000  H 
  H175     1.0000 0.34150  0.03580  0.67490  Biso   1.000  H 
  H176     1.0000 0.65850  0.96420  0.17490  Biso   1.000  H 
  C233     1.0000 0.07840  0.39090  0.25910  Biso   1.000  C 
  C234     1.0000 0.92160  0.60910  0.75910  Biso   1.000  C 
  C235     1.0000 0.10910  0.57840  0.50910  Biso   1.000  C 
  C236     1.0000 0.89090  0.42160  0.00910  Biso   1.000  C 
  C237     1.0000 0.42160  0.89090  0.99090  Biso   1.000  C 
  C238     1.0000 0.57840  0.10910  0.49090  Biso   1.000  C 
  C239     1.0000 0.39090  0.07840  0.74090  Biso   1.000  C 
  C240     1.0000 0.60910  0.92160  0.24090  Biso   1.000  C 
  C241     1.0000 0.15770  0.33670  0.25500  Biso   1.000  C 
  C242     1.0000 0.84230  0.66330  0.75500  Biso   1.000  C 
  C243     1.0000 0.16330  0.65770  0.50500  Biso   1.000  C 
  C244     1.0000 0.83670  0.34230  0.00500  Biso   1.000  C 
  C245     1.0000 0.34230  0.83670  0.99500  Biso   1.000  C 
  C246     1.0000 0.65770  0.16330  0.49500  Biso   1.000  C 
  C247     1.0000 0.33670  0.15770  0.74500  Biso   1.000  C 
  C248     1.0000 0.66330  0.84230  0.24500  Biso   1.000  C 
  H177     1.0000 0.17010  0.29330  0.27780  Biso   1.000  H 
  H178     1.0000 0.82990  0.70670  0.77780  Biso   1.000  H 
  H179     1.0000 0.20670  0.67010  0.52780  Biso   1.000  H 
  H180     1.0000 0.79330  0.32990  0.02780  Biso   1.000  H 
  H181     1.0000 0.32990  0.79330  0.97220  Biso   1.000  H 
  H182     1.0000 0.67010  0.20670  0.47220  Biso   1.000  H 
  H183     1.0000 0.29330  0.17010  0.72220  Biso   1.000  H 
  H184     1.0000 0.70670  0.82990  0.22220  Biso   1.000  H 
  C249     1.0000 0.21800  0.34500  0.21850  Biso   1.000  C 
  C250     1.0000 0.78200  0.65500  0.71850  Biso   1.000  C 
  C251     1.0000 0.15500  0.71800  0.46850  Biso   1.000  C 
  C252     1.0000 0.84500  0.28200  0.96850  Biso   1.000  C 
  C253     1.0000 0.28200  0.84500  0.03150  Biso   1.000  C 
  C254     1.0000 0.71800  0.15500  0.53150  Biso   1.000  C 
  C255     1.0000 0.34500  0.21800  0.78150  Biso   1.000  C 
  C256     1.0000 0.65500  0.78200  0.28150  Biso   1.000  C 
  H185     1.0000 0.26850  0.30570  0.21700  Biso   1.000  H 
  H186     1.0000 0.73150  0.69430  0.71700  Biso   1.000  H 
  H187     1.0000 0.19430  0.76850  0.46700  Biso   1.000  H 
  H188     1.0000 0.80570  0.23150  0.96700  Biso   1.000  H 
  H189     1.0000 0.23150  0.80570  0.03300  Biso   1.000  H 
  H190     1.0000 0.76850  0.19430  0.53300  Biso   1.000  H 
  H191     1.0000 0.30570  0.26850  0.78300  Biso   1.000  H 
  H192     1.0000 0.69430  0.73150  0.28300  Biso   1.000  H 
  C257     1.0000 0.20600  0.40930  0.18430  Biso   1.000  C 
  C258     1.0000 0.79400  0.59070  0.68430  Biso   1.000  C 
  C259     1.0000 0.09070  0.70600  0.43430  Biso   1.000  C 
  C260     1.0000 0.90930  0.29400  0.93430  Biso   1.000  C 
  C261     1.0000 0.29400  0.90930  0.06570  Biso   1.000  C 
  C262     1.0000 0.70600  0.09070  0.56570  Biso   1.000  C 
  C263     1.0000 0.40930  0.20600  0.81570  Biso   1.000  C 
  C264     1.0000 0.59070  0.79400  0.31570  Biso   1.000  C 
  C265     1.0000 0.12670  0.46280  0.18790  Biso   1.000  C 
  C266     1.0000 0.87330  0.53720  0.68790  Biso   1.000  C 
  C267     1.0000 0.03720  0.62670  0.43790  Biso   1.000  C 
  C268     1.0000 0.96280  0.37330  0.93790  Biso   1.000  C 
  C269     1.0000 0.37330  0.96280  0.06210  Biso   1.000  C 
  C270     1.0000 0.62670  0.03720  0.56210  Biso   1.000  C 
  C271     1.0000 0.46280  0.12670  0.81210  Biso   1.000  C 
  C272     1.0000 0.53720  0.87330  0.31210  Biso   1.000  C 
  H193     1.0000 0.11490  0.50620  0.16490  Biso   1.000  H 
  H194     1.0000 0.88510  0.49380  0.66490  Biso   1.000  H 
  H195     1.0000 0.99380  0.61490  0.41490  Biso   1.000  H 
  H196     1.0000 0.00620  0.38510  0.91490  Biso   1.000  H 
  H197     1.0000 0.38510  0.00620  0.08510  Biso   1.000  H 
  H198     1.0000 0.61490  0.99380  0.58510  Biso   1.000  H 
  H199     1.0000 0.50620  0.11490  0.83510  Biso   1.000  H 
  H200     1.0000 0.49380  0.88510  0.33510  Biso   1.000  H 
  C273     1.0000 0.06650  0.45460  0.22300  Biso   1.000  C 
  C274     1.0000 0.93350  0.54540  0.72300  Biso   1.000  C 
  C275     1.0000 0.04540  0.56650  0.47300  Biso   1.000  C 
  C276     1.0000 0.95460  0.43350  0.97300  Biso   1.000  C 
  C277     1.0000 0.43350  0.95460  0.02700  Biso   1.000  C 
  C278     1.0000 0.56650  0.04540  0.52700  Biso   1.000  C 
  C279     1.0000 0.45460  0.06650  0.77700  Biso   1.000  C 
  C280     1.0000 0.54540  0.93350  0.27700  Biso   1.000  C 
  H201     1.0000 0.01480  0.49260  0.22340  Biso   1.000  H 
  H202     1.0000 0.98520  0.50740  0.72340  Biso   1.000  H 
  H203     1.0000 0.00740  0.51480  0.47340  Biso   1.000  H 
  H204     1.0000 0.99260  0.48520  0.97340  Biso   1.000  H 
  H205     1.0000 0.48520  0.99260  0.02660  Biso   1.000  H 
  H206     1.0000 0.51480  0.00740  0.52660  Biso   1.000  H 
  H207     1.0000 0.49260  0.01480  0.77660  Biso   1.000  H 
  H208     1.0000 0.50740  0.98520  0.27660  Biso   1.000  H 
  C281     1.0000 0.27020  0.42690  0.14320  Biso   1.000  C 
  C282     1.0000 0.72980  0.57310  0.64320  Biso   1.000  C 
  C283     1.0000 0.07310  0.77020  0.39320  Biso   1.000  C 
  C284     1.0000 0.92690  0.22980  0.89320  Biso   1.000  C 
  C285     1.0000 0.22980  0.92690  0.10680  Biso   1.000  C 
  C286     1.0000 0.77020  0.07310  0.60680  Biso   1.000  C 
  C287     1.0000 0.42690  0.27020  0.85680  Biso   1.000  C 
  C288     1.0000 0.57310  0.72980  0.35680  Biso   1.000  C 
