data_image0
_cell_length_a       8.9602
_cell_length_b       10.7764
_cell_length_c       19.041
_cell_angle_alpha    75.382
_cell_angle_beta     83.782
_cell_angle_gamma    69.363

_symmetry_space_group_name_H-M    "P 1"
_symmetry_int_tables_number       1

loop_
  _symmetry_equiv_pos_as_xyz
  'x, y, z'

loop_
  _atom_site_label
  _atom_site_occupancy
  _atom_site_fract_x
  _atom_site_fract_y
  _atom_site_fract_z
  _atom_site_thermal_displace_type
  _atom_site_B_iso_or_equiv
  _atom_site_type_symbol
  La1      1.0000 0.60346  0.46842  0.77683  Biso   1.000  La
  O1       1.0000 0.49760  0.40620  0.68130  Biso   1.000  O 
  C1       1.0000 0.38650  0.41480  0.64310  Biso   1.000  C 
  O2       1.0000 0.24040  0.45520  0.65950  Biso   1.000  O 
  La2      1.0000 0.99849  0.58977  0.71255  Biso   1.000  La
  O3       1.0000 0.90320  0.57190  0.58650  Biso   1.000  O 
  C2       1.0000 0.75760  0.59900  0.60260  Biso   1.000  C 
  O4       1.0000 0.70530  0.60730  0.66620  Biso   1.000  O 
  C3       1.0000 0.63940  0.62870  0.54550  Biso   1.000  C 
  C4       1.0000 0.47740  0.68290  0.56110  Biso   1.000  C 
  N1       1.0000 0.36270  0.70790  0.51400  Biso   1.000  N 
  C5       1.0000 0.40950  0.67940  0.44880  Biso   1.000  C 
  H1       1.0000 0.33170  0.69720  0.41550  Biso   1.000  H 
  C6       1.0000 0.56850  0.62480  0.42850  Biso   1.000  C 
  C7       1.0000 0.61350  0.58520  0.35690  Biso   1.000  C 
  O5       1.0000 0.75960  0.54480  0.34050  Biso   1.000  O 
  La3      1.0000 0.00151  0.41023  0.28745  Biso   1.000  La
  O6       1.0000 0.22190  0.39410  0.18920  Biso   1.000  O 
  La4      1.0000 0.39654  0.53158  0.22317  Biso   1.000  La
  O7       1.0000 0.43060  0.40670  0.11880  Biso   1.000  O 
  C8       1.0000 0.30030  0.38510  0.13010  Biso   1.000  C 
  C9       1.0000 0.23020  0.35480  0.07120  Biso   1.000  C 
  C10      1.0000 0.28780  0.38200  0.00000  Biso   1.000  C 
  H2       1.0000 0.37710  0.40900  0.98950  Biso   1.000  H 
  C11      1.0000 0.20810  0.36780  0.94500  Biso   1.000  C 
  C12      1.0000 0.07830  0.32350  0.96440  Biso   1.000  C 
  H3       1.0000 0.02450  0.31580  0.92750  Biso   1.000  H 
  N2       1.0000 0.02540  0.29120  0.03280  Biso   1.000  N 
  C13      1.0000 0.10230  0.30790  0.08500  Biso   1.000  C 
  H4       1.0000 0.06730  0.28680  0.13290  Biso   1.000  H 
  C14      1.0000 0.25620  0.40450  0.86620  Biso   1.000  C 
  O8       1.0000 0.39880  0.39680  0.85220  Biso   1.000  O 
  O9       1.0000 0.15010  0.43740  0.82060  Biso   1.000  O 
  O10      1.0000 0.29470  0.39270  0.33380  Biso   1.000  O 
  C15      1.0000 0.24240  0.40100  0.39740  Biso   1.000  C 
  O11      1.0000 0.09680  0.42810  0.41350  Biso   1.000  O 
  C16      1.0000 0.36060  0.37130  0.45450  Biso   1.000  C 
  C17      1.0000 0.52260  0.31710  0.43890  Biso   1.000  C 
  H5       1.0000 0.55340  0.29710  0.39370  Biso   1.000  H 
  N3       1.0000 0.63730  0.29210  0.48600  Biso   1.000  N 
  C18      1.0000 0.59050  0.32060  0.55120  Biso   1.000  C 
  C19      1.0000 0.43150  0.37520  0.57150  Biso   1.000  C 
  C20      1.0000 0.31520  0.39910  0.52230  Biso   1.000  C 
  H6       1.0000 0.20770  0.43350  0.53490  Biso   1.000  H 
  H7       1.0000 0.66830  0.30280  0.58450  Biso   1.000  H 
  O12      1.0000 0.06690  0.63090  0.25530  Biso   1.000  O 
  C21      1.0000 0.07160  0.74710  0.25210  Biso   1.000  C 
  O13      1.0000 0.20370  0.76680  0.24970  Biso   1.000  O 
  C22      1.0000 0.91980  0.86550  0.24970  Biso   1.000  C 
  C23      1.0000 0.77390  0.84640  0.24690  Biso   1.000  C 
  H8       1.0000 0.77470  0.75980  0.24680  Biso   1.000  H 
  N4       1.0000 0.63310  0.94760  0.24430  Biso   1.000  N 
  C24      1.0000 0.63350  0.06980  0.24540  Biso   1.000  C 
  H9       1.0000 0.53570  0.13930  0.24510  Biso   1.000  H 
  C25      1.0000 0.77190  0.10100  0.24710  Biso   1.000  C 
  C26      1.0000 0.76080  0.24280  0.24850  Biso   1.000  C 
  O14      1.0000 0.62400  0.32550  0.25800  Biso   1.000  O 
  O15      1.0000 0.88860  0.26850  0.23980  Biso   1.000  O 
  C27      1.0000 0.91700  0.99450  0.24880  Biso   1.000  C 
  H10      1.0000 0.01210  0.01070  0.24930  Biso   1.000  H 
  O16      1.0000 0.25440  0.69490  0.11140  Biso   1.000  O 
  C28      1.0000 0.27440  0.73270  0.04980  Biso   1.000  C 
  H11      1.0000 0.28990  0.66920  0.02210  Biso   1.000  H 
  N5       1.0000 0.27800  0.85270  0.01320  Biso   1.000  N 
  C29      1.0000 0.29500  0.88300  0.93230  Biso   1.000  C 
  H12      1.0000 0.30340  0.80360  0.91550  Biso   1.000  H 
  H13      1.0000 0.20370  0.95740  0.91150  Biso   1.000  H 
  H14      1.0000 0.38970  0.90620  0.91780  Biso   1.000  H 
  C30      1.0000 0.31000  0.95600  0.05560  Biso   1.000  C 
  H15      1.0000 0.30770  0.91990  0.10710  Biso   1.000  H 
  H16      1.0000 0.41220  0.96540  0.04100  Biso   1.000  H 
  H17      1.0000 0.22820  0.04400  0.04360  Biso   1.000  H 
  O17      1.0000 0.60120  0.60320  0.14780  Biso   1.000  O 
  C31      1.0000 0.74380  0.59550  0.13380  Biso   1.000  C 
  O18      1.0000 0.84990  0.56260  0.17940  Biso   1.000  O 
  C32      1.0000 0.79190  0.63220  0.05500  Biso   1.000  C 
  C33      1.0000 0.92170  0.67650  0.03560  Biso   1.000  C 
  H18      1.0000 0.97550  0.68420  0.07250  Biso   1.000  H 
  N6       1.0000 0.97460  0.70880  0.96720  Biso   1.000  N 
  C34      1.0000 0.89770  0.69210  0.91500  Biso   1.000  C 
  C35      1.0000 0.76980  0.64520  0.92880  Biso   1.000  C 
  C36      1.0000 0.69970  0.61490  0.86990  Biso   1.000  C 
  O19      1.0000 0.77810  0.60590  0.81080  Biso   1.000  O 
  O20      1.0000 0.56940  0.59330  0.88120  Biso   1.000  O 
  C37      1.0000 0.71220  0.61800  0.00000  Biso   1.000  C 
  H19      1.0000 0.62290  0.59100  0.01050  Biso   1.000  H 
  H20      1.0000 0.93270  0.71320  0.86710  Biso   1.000  H 
  O21      1.0000 0.50240  0.59380  0.31870  Biso   1.000  O 
  O22      1.0000 0.19800  0.16570  0.31210  Biso   1.000  O 
  H21      1.0000 0.23967  0.14014  0.36188  Biso   1.000  H 
  H22      1.0000 0.28795  0.15923  0.27623  Biso   1.000  H 
  O23      1.0000 0.91290  0.25170  0.39650  Biso   1.000  O 
  H23      1.0000 0.89858  0.17621  0.38011  Biso   1.000  H 
  H24      1.0000 0.81043  0.30441  0.41709  Biso   1.000  H 
  C38      1.0000 0.68480  0.60090  0.47770  Biso   1.000  C 
  H25      1.0000 0.79230  0.56650  0.46510  Biso   1.000  H 
  H26      1.0000 0.44660  0.70290  0.60630  Biso   1.000  H 
  O24      1.0000 0.93310  0.36910  0.74470  Biso   1.000  O 
  C39      1.0000 0.92840  0.25290  0.74790  Biso   1.000  C 
  O25      1.0000 0.79630  0.23320  0.75030  Biso   1.000  O 
  C40      1.0000 0.08020  0.13450  0.75030  Biso   1.000  C 
  C41      1.0000 0.22610  0.15360  0.75310  Biso   1.000  C 
  N7       1.0000 0.36690  0.05240  0.75570  Biso   1.000  N 
  C42      1.0000 0.36650  0.93020  0.75460  Biso   1.000  C 
  C43      1.0000 0.22810  0.89900  0.75290  Biso   1.000  C 
  C44      1.0000 0.23920  0.75720  0.75150  Biso   1.000  C 
  O26      1.0000 0.11140  0.73150  0.76020  Biso   1.000  O 
  O27      1.0000 0.37600  0.67450  0.74200  Biso   1.000  O 
  C45      1.0000 0.08300  0.00550  0.75120  Biso   1.000  C 
  H27      1.0000 0.98790  0.98930  0.75070  Biso   1.000  H 
  H28      1.0000 0.46430  0.86070  0.75490  Biso   1.000  H 
  H29      1.0000 0.22530  0.24020  0.75320  Biso   1.000  H 
  O28      1.0000 0.80200  0.83430  0.68790  Biso   1.000  O 
  H30      1.0000 0.76033  0.85986  0.63812  Biso   1.000  H 
  H31      1.0000 0.71205  0.84077  0.72377  Biso   1.000  H 
  O29      1.0000 0.08710  0.74830  0.60350  Biso   1.000  O 
  H32      1.0000 0.18956  0.69559  0.58291  Biso   1.000  H 
  H33      1.0000 0.10142  0.82379  0.61989  Biso   1.000  H 
  O30      1.0000 0.74560  0.30510  0.88860  Biso   1.000  O 
  C46      1.0000 0.72560  0.26730  0.95020  Biso   1.000  C 
  N8       1.0000 0.72200  0.14730  0.98680  Biso   1.000  N 
  C47      1.0000 0.70500  0.11700  0.06770  Biso   1.000  C 
  H34      1.0000 0.61030  0.09380  0.08220  Biso   1.000  H 
  H35      1.0000 0.79630  0.04260  0.08850  Biso   1.000  H 
  H36      1.0000 0.69660  0.19640  0.08450  Biso   1.000  H 
  C48      1.0000 0.69000  0.04400  0.94440  Biso   1.000  C 
  H37      1.0000 0.58780  0.03460  0.95900  Biso   1.000  H 
  H38      1.0000 0.69230  0.08010  0.89290  Biso   1.000  H 
  H39      1.0000 0.77180  0.95600  0.95640  Biso   1.000  H 
  H40      1.0000 0.71010  0.33080  0.97790  Biso   1.000  H 
