data_image0
_cell_length_a       21.918
_cell_length_b       19.295
_cell_length_c       8.81
_cell_angle_alpha    90
_cell_angle_beta     90
_cell_angle_gamma    90

_symmetry_space_group_name_H-M    "P 1"
_symmetry_int_tables_number       1

loop_
  _symmetry_equiv_pos_as_xyz
  'x, y, z'

loop_
  _atom_site_label
  _atom_site_occupancy
  _atom_site_fract_x
  _atom_site_fract_y
  _atom_site_fract_z
  _atom_site_thermal_displace_type
  _atom_site_B_iso_or_equiv
  _atom_site_type_symbol
  Cu1      1.0000 0.50000  0.10708  0.25000  Biso   1.000  Cu
  Cu2      1.0000 0.00000  0.39292  0.75000  Biso   1.000  Cu
  Cu3      1.0000 0.50000  0.89292  0.75000  Biso   1.000  Cu
  Cu4      1.0000 0.00000  0.60708  0.25000  Biso   1.000  Cu
  N1       1.0000 0.49861  0.15264  0.44310  Biso   1.000  N 
  N2       1.0000 0.00139  0.34736  0.94310  Biso   1.000  N 
  N3       1.0000 0.99861  0.34736  0.55690  Biso   1.000  N 
  N4       1.0000 0.50139  0.15264  0.05690  Biso   1.000  N 
  N5       1.0000 0.50139  0.84736  0.55690  Biso   1.000  N 
  N6       1.0000 0.99861  0.65264  0.05690  Biso   1.000  N 
  N7       1.0000 0.00139  0.65264  0.44310  Biso   1.000  N 
  N8       1.0000 0.49861  0.84736  0.94310  Biso   1.000  N 
  C1       1.0000 0.50063  0.18232  0.55750  Biso   1.000  C 
  C2       1.0000 0.99937  0.31768  0.05750  Biso   1.000  C 
  C3       1.0000 0.00063  0.31768  0.44250  Biso   1.000  C 
  C4       1.0000 0.49937  0.18232  0.94250  Biso   1.000  C 
  C5       1.0000 0.49937  0.81768  0.44250  Biso   1.000  C 
  C6       1.0000 0.00063  0.68232  0.94250  Biso   1.000  C 
  C7       1.0000 0.99937  0.68232  0.55750  Biso   1.000  C 
  C8       1.0000 0.50063  0.81768  0.05750  Biso   1.000  C 
  Cu5      1.0000 0.50000  0.22916  0.75000  Biso   1.000  Cu
  Cu6      1.0000 0.00000  0.27084  0.25000  Biso   1.000  Cu
  Cu7      1.0000 0.50000  0.77084  0.25000  Biso   1.000  Cu
  Cu8      1.0000 0.00000  0.72916  0.75000  Biso   1.000  Cu
  N9       1.0000 0.42609  0.03355  0.25480  Biso   1.000  N 
  N10      1.0000 0.07391  0.46645  0.75480  Biso   1.000  N 
  N11      1.0000 0.92609  0.46645  0.74520  Biso   1.000  N 
  N12      1.0000 0.57391  0.03355  0.24520  Biso   1.000  N 
  N13      1.0000 0.57391  0.96645  0.74520  Biso   1.000  N 
  N14      1.0000 0.92609  0.53355  0.24520  Biso   1.000  N 
  N15      1.0000 0.07391  0.53355  0.25480  Biso   1.000  N 
  N16      1.0000 0.42609  0.96645  0.75480  Biso   1.000  N 
  C9       1.0000 0.43011  0.96983  0.19690  Biso   1.000  C 
  C10      1.0000 0.06989  0.53017  0.69690  Biso   1.000  C 
  C11      1.0000 0.93011  0.53017  0.80310  Biso   1.000  C 
  C12      1.0000 0.56989  0.96983  0.30310  Biso   1.000  C 
  C13      1.0000 0.56989  0.03017  0.80310  Biso   1.000  C 
  C14      1.0000 0.93011  0.46983  0.30310  Biso   1.000  C 
  C15      1.0000 0.06989  0.46983  0.19690  Biso   1.000  C 
  C16      1.0000 0.43011  0.03017  0.69690  Biso   1.000  C 
  H1       1.0000 0.46289  0.95894  0.13231  Biso   1.000  H 
  H2       1.0000 0.03711  0.54106  0.63231  Biso   1.000  H 
  H3       1.0000 0.96289  0.54106  0.86769  Biso   1.000  H 
  H4       1.0000 0.53711  0.95894  0.36769  Biso   1.000  H 
  H5       1.0000 0.53711  0.04106  0.86769  Biso   1.000  H 
  H6       1.0000 0.96289  0.45894  0.36769  Biso   1.000  H 
  H7       1.0000 0.03711  0.45894  0.13231  Biso   1.000  H 
  H8       1.0000 0.46289  0.04106  0.63231  Biso   1.000  H 
  N17      1.0000 0.33874  0.93215  0.31390  Biso   1.000  N 
  N18      1.0000 0.16126  0.56785  0.81390  Biso   1.000  N 
  N19      1.0000 0.83874  0.56785  0.68610  Biso   1.000  N 
  N20      1.0000 0.66126  0.93215  0.18610  Biso   1.000  N 
  N21      1.0000 0.66126  0.06785  0.68610  Biso   1.000  N 
  N22      1.0000 0.83874  0.43215  0.18610  Biso   1.000  N 
  N23      1.0000 0.16126  0.43215  0.31390  Biso   1.000  N 
  N24      1.0000 0.33874  0.06785  0.81390  Biso   1.000  N 
  C17      1.0000 0.38722  0.91942  0.22950  Biso   1.000  C 
  C18      1.0000 0.11278  0.58058  0.72950  Biso   1.000  C 
  C19      1.0000 0.88722  0.58058  0.77050  Biso   1.000  C 
  C20      1.0000 0.61278  0.91942  0.27050  Biso   1.000  C 
  C21      1.0000 0.61278  0.08058  0.77050  Biso   1.000  C 
  C22      1.0000 0.88722  0.41942  0.27050  Biso   1.000  C 
  C23      1.0000 0.11278  0.41942  0.22950  Biso   1.000  C 
  C24      1.0000 0.38722  0.08058  0.72950  Biso   1.000  C 
  H9       1.0000 0.39279  0.87457  0.19019  Biso   1.000  H 
  H10      1.0000 0.10721  0.62543  0.69019  Biso   1.000  H 
  H11      1.0000 0.89279  0.62543  0.80981  Biso   1.000  H 
  H12      1.0000 0.60721  0.87457  0.30981  Biso   1.000  H 
  H13      1.0000 0.60721  0.12543  0.80981  Biso   1.000  H 
  H14      1.0000 0.89279  0.37457  0.30981  Biso   1.000  H 
  H15      1.0000 0.10721  0.37457  0.19019  Biso   1.000  H 
  H16      1.0000 0.39279  0.12543  0.69019  Biso   1.000  H 
  N25      1.0000 0.26383  0.07799  0.48520  Biso   1.000  N 
  N26      1.0000 0.23617  0.42201  0.98520  Biso   1.000  N 
  N27      1.0000 0.76383  0.42201  0.51480  Biso   1.000  N 
  N28      1.0000 0.73617  0.07799  0.01480  Biso   1.000  N 
  N29      1.0000 0.73617  0.92201  0.51480  Biso   1.000  N 
  N30      1.0000 0.76383  0.57799  0.01480  Biso   1.000  N 
  N31      1.0000 0.23617  0.57799  0.48520  Biso   1.000  N 
  N32      1.0000 0.26383  0.92201  0.98520  Biso   1.000  N 
  C25      1.0000 0.33259  0.99685  0.36740  Biso   1.000  C 
  C26      1.0000 0.16741  0.50315  0.86740  Biso   1.000  C 
  C27      1.0000 0.83259  0.50315  0.63260  Biso   1.000  C 
  C28      1.0000 0.66741  0.99685  0.13260  Biso   1.000  C 
  C29      1.0000 0.66741  0.00315  0.63260  Biso   1.000  C 
  C30      1.0000 0.83259  0.49685  0.13260  Biso   1.000  C 
  C31      1.0000 0.16741  0.49685  0.36740  Biso   1.000  C 
  C32      1.0000 0.33259  0.00315  0.86740  Biso   1.000  C 
  N33      1.0000 0.14582  0.18075  0.65670  Biso   1.000  N 
  N34      1.0000 0.35418  0.31925  0.15670  Biso   1.000  N 
  N35      1.0000 0.64582  0.31925  0.34330  Biso   1.000  N 
  N36      1.0000 0.85418  0.18075  0.84330  Biso   1.000  N 
  N37      1.0000 0.85418  0.81925  0.34330  Biso   1.000  N 
  N38      1.0000 0.64582  0.68075  0.84330  Biso   1.000  N 
  N39      1.0000 0.35418  0.68075  0.65670  Biso   1.000  N 
  N40      1.0000 0.14582  0.81925  0.15670  Biso   1.000  N 
  C33      1.0000 0.37632  0.04711  0.33890  Biso   1.000  C 
  C34      1.0000 0.12368  0.45289  0.83890  Biso   1.000  C 
  C35      1.0000 0.87632  0.45289  0.66110  Biso   1.000  C 
  C36      1.0000 0.62368  0.04711  0.16110  Biso   1.000  C 
  C37      1.0000 0.62368  0.95289  0.66110  Biso   1.000  C 
  C38      1.0000 0.87632  0.54711  0.16110  Biso   1.000  C 
  C39      1.0000 0.12368  0.54711  0.33890  Biso   1.000  C 
  C40      1.0000 0.37632  0.95289  0.83890  Biso   1.000  C 
  H17      1.0000 0.37104  0.09178  0.37942  Biso   1.000  H 
  H18      1.0000 0.12896  0.40822  0.87942  Biso   1.000  H 
  H19      1.0000 0.87104  0.40822  0.62058  Biso   1.000  H 
  H20      1.0000 0.62896  0.09178  0.12058  Biso   1.000  H 
  H21      1.0000 0.62896  0.90822  0.62058  Biso   1.000  H 
  H22      1.0000 0.87104  0.59178  0.12058  Biso   1.000  H 
  H23      1.0000 0.12896  0.59178  0.37942  Biso   1.000  H 
  H24      1.0000 0.37104  0.90822  0.87942  Biso   1.000  H 
  N41      1.0000 0.21431  0.28361  0.51850  Biso   1.000  N 
  N42      1.0000 0.28569  0.21639  0.01850  Biso   1.000  N 
  N43      1.0000 0.71431  0.21639  0.48150  Biso   1.000  N 
  N44      1.0000 0.78569  0.28361  0.98150  Biso   1.000  N 
  N45      1.0000 0.78569  0.71639  0.48150  Biso   1.000  N 
  N46      1.0000 0.71431  0.78361  0.98150  Biso   1.000  N 
  N47      1.0000 0.28569  0.78361  0.51850  Biso   1.000  N 
  N48      1.0000 0.21431  0.71639  0.01850  Biso   1.000  N 
  C41      1.0000 0.27702  0.01142  0.45880  Biso   1.000  C 
  C42      1.0000 0.22298  0.48858  0.95880  Biso   1.000  C 
  C43      1.0000 0.77702  0.48858  0.54120  Biso   1.000  C 
  C44      1.0000 0.72298  0.01142  0.04120  Biso   1.000  C 
  C45      1.0000 0.72298  0.98858  0.54120  Biso   1.000  C 
  C46      1.0000 0.77702  0.51142  0.04120  Biso   1.000  C 
  C47      1.0000 0.22298  0.51142  0.45880  Biso   1.000  C 
  C48      1.0000 0.27702  0.98858  0.95880  Biso   1.000  C 
  N49      1.0000 0.07020  0.80428  0.72160  Biso   1.000  N 
  N50      1.0000 0.42980  0.69572  0.22160  Biso   1.000  N 
  N51      1.0000 0.57020  0.69572  0.27840  Biso   1.000  N 
  N52      1.0000 0.92980  0.80428  0.77840  Biso   1.000  N 
  N53      1.0000 0.92980  0.19572  0.27840  Biso   1.000  N 
  N54      1.0000 0.57020  0.30428  0.77840  Biso   1.000  N 
  N55      1.0000 0.42980  0.30428  0.72160  Biso   1.000  N 
  N56      1.0000 0.07020  0.19572  0.22160  Biso   1.000  N 
  C49      1.0000 0.24123  0.95671  0.50930  Biso   1.000  C 
  C50      1.0000 0.25877  0.54329  0.00930  Biso   1.000  C 
  C51      1.0000 0.74123  0.54329  0.49070  Biso   1.000  C 
  C52      1.0000 0.75877  0.95671  0.99070  Biso   1.000  C 
  C53      1.0000 0.75877  0.04329  0.49070  Biso   1.000  C 
  C54      1.0000 0.74123  0.45671  0.99070  Biso   1.000  C 
  C55      1.0000 0.25877  0.45671  0.50930  Biso   1.000  C 
  C56      1.0000 0.24123  0.04329  0.00930  Biso   1.000  C 
  H25      1.0000 0.25208  0.91073  0.48656  Biso   1.000  H 
  H26      1.0000 0.24792  0.58927  0.98656  Biso   1.000  H 
  H27      1.0000 0.75208  0.58927  0.51344  Biso   1.000  H 
  H28      1.0000 0.74792  0.91073  0.01344  Biso   1.000  H 
  H29      1.0000 0.74792  0.08927  0.51344  Biso   1.000  H 
  H30      1.0000 0.75208  0.41073  0.01344  Biso   1.000  H 
  H31      1.0000 0.24792  0.41073  0.48656  Biso   1.000  H 
  H32      1.0000 0.25208  0.08927  0.98656  Biso   1.000  H 
  C57      1.0000 0.18932  0.97073  0.59360  Biso   1.000  C 
  C58      1.0000 0.31068  0.52927  0.09360  Biso   1.000  C 
  C59      1.0000 0.68932  0.52927  0.40640  Biso   1.000  C 
  C60      1.0000 0.81068  0.97073  0.90640  Biso   1.000  C 
  C61      1.0000 0.81068  0.02927  0.40640  Biso   1.000  C 
  C62      1.0000 0.68932  0.47073  0.90640  Biso   1.000  C 
  C63      1.0000 0.31068  0.47073  0.59360  Biso   1.000  C 
  C64      1.0000 0.18932  0.02927  0.09360  Biso   1.000  C 
  C65      1.0000 0.14833  0.91321  0.64060  Biso   1.000  C 
  C66      1.0000 0.35167  0.58679  0.14060  Biso   1.000  C 
  C67      1.0000 0.64833  0.58679  0.35940  Biso   1.000  C 
  C68      1.0000 0.85167  0.91321  0.85940  Biso   1.000  C 
  C69      1.0000 0.85167  0.08679  0.35940  Biso   1.000  C 
  C70      1.0000 0.64833  0.41321  0.85940  Biso   1.000  C 
  C71      1.0000 0.35167  0.41321  0.64060  Biso   1.000  C 
  C72      1.0000 0.14833  0.08679  0.14060  Biso   1.000  C 
  C73      1.0000 0.14392  0.85384  0.55410  Biso   1.000  C 
  C74      1.0000 0.35608  0.64616  0.05410  Biso   1.000  C 
  C75      1.0000 0.64392  0.64616  0.44590  Biso   1.000  C 
  C76      1.0000 0.85608  0.85384  0.94590  Biso   1.000  C 
  C77      1.0000 0.85608  0.14616  0.44590  Biso   1.000  C 
  C78      1.0000 0.64392  0.35384  0.94590  Biso   1.000  C 
  C79      1.0000 0.35608  0.35384  0.55410  Biso   1.000  C 
  C80      1.0000 0.14392  0.14616  0.05410  Biso   1.000  C 
  H33      1.0000 0.16771  0.84908  0.46592  Biso   1.000  H 
  H34      1.0000 0.33229  0.65092  0.96592  Biso   1.000  H 
  H35      1.0000 0.66771  0.65092  0.53408  Biso   1.000  H 
  H36      1.0000 0.83229  0.84908  0.03408  Biso   1.000  H 
  H37      1.0000 0.83229  0.15092  0.53408  Biso   1.000  H 
  H38      1.0000 0.66771  0.34908  0.03408  Biso   1.000  H 
  H39      1.0000 0.33229  0.34908  0.46592  Biso   1.000  H 
  H40      1.0000 0.16771  0.15092  0.96592  Biso   1.000  H 
  C81      1.0000 0.10477  0.80155  0.59660  Biso   1.000  C 
  C82      1.0000 0.39523  0.69845  0.09660  Biso   1.000  C 
  C83      1.0000 0.60477  0.69845  0.40340  Biso   1.000  C 
  C84      1.0000 0.89523  0.80155  0.90340  Biso   1.000  C 
  C85      1.0000 0.89523  0.19845  0.40340  Biso   1.000  C 
  C86      1.0000 0.60477  0.30155  0.90340  Biso   1.000  C 
  C87      1.0000 0.39523  0.30155  0.59660  Biso   1.000  C 
  C88      1.0000 0.10477  0.19845  0.09660  Biso   1.000  C 
  H41      1.0000 0.10220  0.76196  0.53474  Biso   1.000  H 
  H42      1.0000 0.39780  0.73803  0.03474  Biso   1.000  H 
  H43      1.0000 0.60220  0.73803  0.46526  Biso   1.000  H 
  H44      1.0000 0.89780  0.76196  0.96526  Biso   1.000  H 
  H45      1.0000 0.89780  0.23803  0.46526  Biso   1.000  H 
  H46      1.0000 0.60220  0.26197  0.96526  Biso   1.000  H 
  H47      1.0000 0.39780  0.26197  0.53474  Biso   1.000  H 
  H48      1.0000 0.10220  0.23803  0.03474  Biso   1.000  H 
  C89      1.0000 0.07492  0.86126  0.80520  Biso   1.000  C 
  C90      1.0000 0.42508  0.63874  0.30520  Biso   1.000  C 
  C91      1.0000 0.57492  0.63874  0.19480  Biso   1.000  C 
  C92      1.0000 0.92508  0.86126  0.69480  Biso   1.000  C 
  C93      1.0000 0.92508  0.13874  0.19480  Biso   1.000  C 
  C94      1.0000 0.57492  0.36126  0.69480  Biso   1.000  C 
  C95      1.0000 0.42508  0.36126  0.80520  Biso   1.000  C 
  C96      1.0000 0.07492  0.13874  0.30520  Biso   1.000  C 
  H49      1.0000 0.05144  0.86430  0.89421  Biso   1.000  H 
  H50      1.0000 0.44856  0.63570  0.39421  Biso   1.000  H 
  H51      1.0000 0.55144  0.63570  0.10579  Biso   1.000  H 
  H52      1.0000 0.94856  0.86430  0.60579  Biso   1.000  H 
  H53      1.0000 0.94856  0.13570  0.10579  Biso   1.000  H 
  H54      1.0000 0.55144  0.36430  0.60579  Biso   1.000  H 
  H55      1.0000 0.44856  0.36430  0.89421  Biso   1.000  H 
  H56      1.0000 0.05144  0.13570  0.39421  Biso   1.000  H 
  C97      1.0000 0.11245  0.91642  0.76860  Biso   1.000  C 
  C98      1.0000 0.38755  0.58358  0.26860  Biso   1.000  C 
  C99      1.0000 0.61245  0.58358  0.23140  Biso   1.000  C 
  C100     1.0000 0.88755  0.91642  0.73140  Biso   1.000  C 
  C101     1.0000 0.88755  0.08358  0.23140  Biso   1.000  C 
  C102     1.0000 0.61245  0.41642  0.73140  Biso   1.000  C 
  C103     1.0000 0.38755  0.41642  0.76860  Biso   1.000  C 
  C104     1.0000 0.11245  0.08358  0.26860  Biso   1.000  C 
  H57      1.0000 0.11345  0.95595  0.83089  Biso   1.000  H 
  H58      1.0000 0.38655  0.54405  0.33089  Biso   1.000  H 
  H59      1.0000 0.61345  0.54405  0.16911  Biso   1.000  H 
  H60      1.0000 0.88655  0.95595  0.66911  Biso   1.000  H 
  H61      1.0000 0.88655  0.04405  0.16911  Biso   1.000  H 
  H62      1.0000 0.61345  0.45594  0.66911  Biso   1.000  H 
  H63      1.0000 0.38655  0.45594  0.83089  Biso   1.000  H 
  H64      1.0000 0.11345  0.04405  0.33089  Biso   1.000  H 
  C105     1.0000 0.17601  0.03943  0.62440  Biso   1.000  C 
  C106     1.0000 0.32399  0.46057  0.12440  Biso   1.000  C 
  C107     1.0000 0.67601  0.46057  0.37560  Biso   1.000  C 
  C108     1.0000 0.82399  0.03943  0.87560  Biso   1.000  C 
  C109     1.0000 0.82399  0.96057  0.37560  Biso   1.000  C 
  C110     1.0000 0.67601  0.53943  0.87560  Biso   1.000  C 
  C111     1.0000 0.32399  0.53943  0.62440  Biso   1.000  C 
  C112     1.0000 0.17601  0.96057  0.12440  Biso   1.000  C 
  H65      1.0000 0.14177  0.05099  0.68340  Biso   1.000  H 
  H66      1.0000 0.35823  0.44900  0.18340  Biso   1.000  H 
  H67      1.0000 0.64177  0.44900  0.31660  Biso   1.000  H 
  H68      1.0000 0.85823  0.05099  0.81660  Biso   1.000  H 
  H69      1.0000 0.85823  0.94900  0.31660  Biso   1.000  H 
  H70      1.0000 0.64177  0.55100  0.81660  Biso   1.000  H 
  H71      1.0000 0.35823  0.55100  0.68340  Biso   1.000  H 
  H72      1.0000 0.14177  0.94900  0.18340  Biso   1.000  H 
  C113     1.0000 0.21374  0.09128  0.56710  Biso   1.000  C 
  C114     1.0000 0.28626  0.40872  0.06710  Biso   1.000  C 
  C115     1.0000 0.71374  0.40872  0.43290  Biso   1.000  C 
  C116     1.0000 0.78626  0.09128  0.93290  Biso   1.000  C 
  C117     1.0000 0.78626  0.90872  0.43290  Biso   1.000  C 
  C118     1.0000 0.71374  0.59128  0.93290  Biso   1.000  C 
  C119     1.0000 0.28626  0.59128  0.56710  Biso   1.000  C 
  C120     1.0000 0.21374  0.90872  0.06710  Biso   1.000  C 
  C121     1.0000 0.19695  0.16567  0.58240  Biso   1.000  C 
  C122     1.0000 0.30305  0.33433  0.08240  Biso   1.000  C 
  C123     1.0000 0.69695  0.33433  0.41760  Biso   1.000  C 
  C124     1.0000 0.80305  0.16567  0.91760  Biso   1.000  C 
  C125     1.0000 0.80305  0.83433  0.41760  Biso   1.000  C 
  C126     1.0000 0.69695  0.66567  0.91760  Biso   1.000  C 
  C127     1.0000 0.30305  0.66567  0.58240  Biso   1.000  C 
  C128     1.0000 0.19695  0.83433  0.08240  Biso   1.000  C 
  C129     1.0000 0.12976  0.24745  0.65930  Biso   1.000  C 
  C130     1.0000 0.37024  0.25255  0.15930  Biso   1.000  C 
  C131     1.0000 0.62976  0.25255  0.34070  Biso   1.000  C 
  C132     1.0000 0.87024  0.24745  0.84070  Biso   1.000  C 
  C133     1.0000 0.87024  0.75255  0.34070  Biso   1.000  C 
  C134     1.0000 0.62976  0.74745  0.84070  Biso   1.000  C 
  C135     1.0000 0.37024  0.74745  0.65930  Biso   1.000  C 
  C136     1.0000 0.12976  0.75255  0.15930  Biso   1.000  C 
  H73      1.0000 0.09397  0.26009  0.71118  Biso   1.000  H 
  H74      1.0000 0.40603  0.23991  0.21118  Biso   1.000  H 
  H75      1.0000 0.59397  0.23991  0.28882  Biso   1.000  H 
  H76      1.0000 0.90603  0.26009  0.78882  Biso   1.000  H 
  H77      1.0000 0.90603  0.73991  0.28882  Biso   1.000  H 
  H78      1.0000 0.59397  0.76009  0.78882  Biso   1.000  H 
  H79      1.0000 0.40603  0.76009  0.71118  Biso   1.000  H 
  H80      1.0000 0.09397  0.73991  0.21118  Biso   1.000  H 
  C137     1.0000 0.16279  0.29766  0.59050  Biso   1.000  C 
  C138     1.0000 0.33721  0.20234  0.09050  Biso   1.000  C 
  C139     1.0000 0.66279  0.20234  0.40950  Biso   1.000  C 
  C140     1.0000 0.83721  0.29766  0.90950  Biso   1.000  C 
  C141     1.0000 0.83721  0.70234  0.40950  Biso   1.000  C 
  C142     1.0000 0.66279  0.79766  0.90950  Biso   1.000  C 
  C143     1.0000 0.33721  0.79766  0.59050  Biso   1.000  C 
  C144     1.0000 0.16279  0.70234  0.09050  Biso   1.000  C 
  H81      1.0000 0.14880  0.34368  0.59396  Biso   1.000  H 
  H82      1.0000 0.35120  0.15632  0.09396  Biso   1.000  H 
  H83      1.0000 0.64880  0.15632  0.40604  Biso   1.000  H 
  H84      1.0000 0.85120  0.34368  0.90604  Biso   1.000  H 
  H85      1.0000 0.85120  0.65632  0.40604  Biso   1.000  H 
  H86      1.0000 0.64880  0.84368  0.90604  Biso   1.000  H 
  H87      1.0000 0.35120  0.84368  0.59396  Biso   1.000  H 
  H88      1.0000 0.14880  0.65632  0.09396  Biso   1.000  H 
  C145     1.0000 0.23078  0.21745  0.51590  Biso   1.000  C 
  C146     1.0000 0.26922  0.28255  0.01590  Biso   1.000  C 
  C147     1.0000 0.73078  0.28255  0.48410  Biso   1.000  C 
  C148     1.0000 0.76922  0.21745  0.98410  Biso   1.000  C 
  C149     1.0000 0.76922  0.78255  0.48410  Biso   1.000  C 
  C150     1.0000 0.73078  0.71745  0.98410  Biso   1.000  C 
  C151     1.0000 0.26922  0.71745  0.51590  Biso   1.000  C 
  C152     1.0000 0.23078  0.78255  0.01590  Biso   1.000  C 
  H89      1.0000 0.26724  0.20542  0.46624  Biso   1.000  H 
  H90      1.0000 0.23276  0.29458  0.96624  Biso   1.000  H 
  H91      1.0000 0.76724  0.29458  0.53376  Biso   1.000  H 
  H92      1.0000 0.73276  0.20542  0.03376  Biso   1.000  H 
  H93      1.0000 0.73276  0.79458  0.53376  Biso   1.000  H 
  H94      1.0000 0.76724  0.70542  0.03376  Biso   1.000  H 
  H95      1.0000 0.23276  0.70542  0.46624  Biso   1.000  H 
  H96      1.0000 0.26724  0.79458  0.96624  Biso   1.000  H 
