data_image0
_cell_length_a       7.5265
_cell_length_b       11.3095
_cell_length_c       11.3964
_cell_angle_alpha    102.312
_cell_angle_beta     104.022
_cell_angle_gamma    103.797

_symmetry_space_group_name_H-M    "P 1"
_symmetry_int_tables_number       1

loop_
  _symmetry_equiv_pos_as_xyz
  'x, y, z'

loop_
  _atom_site_label
  _atom_site_occupancy
  _atom_site_fract_x
  _atom_site_fract_y
  _atom_site_fract_z
  _atom_site_thermal_displace_type
  _atom_site_B_iso_or_equiv
  _atom_site_type_symbol
  C1       1.0000 0.70830  0.72618  0.81882  Biso   1.000  C 
  H1       1.0000 0.69100  0.79410  0.78860  Biso   1.000  H 
  C2       1.0000 0.70930  0.73209  0.94068  Biso   1.000  C 
  C3       1.0000 0.73450  0.63171  0.98917  Biso   1.000  C 
  C4       1.0000 0.75890  0.52991  0.90894  Biso   1.000  C 
  H2       1.0000 0.77680  0.46080  0.93680  Biso   1.000  H 
  C5       1.0000 0.75650  0.53150  0.78736  Biso   1.000  C 
  H3       1.0000 0.77360  0.46250  0.73540  Biso   1.000  H 
  N1       1.0000 0.73080  0.62757  0.74116  Biso   1.000  N 
  Ag1      1.0000 0.71107  0.62556  0.54916  Biso   1.000  Ag
  Ag2      1.0000 0.28893  0.37444  0.45084  Biso   1.000  Ag
  N2       1.0000 0.26920  0.37243  0.25884  Biso   1.000  N 
  C6       1.0000 0.29170  0.27382  0.18118  Biso   1.000  C 
  C7       1.0000 0.29070  0.26791  0.05932  Biso   1.000  C 
  H4       1.0000 0.30680  0.19720  0.00920  Biso   1.000  H 
  C8       1.0000 0.26550  0.36829  0.01083  Biso   1.000  C 
  C9       1.0000 0.24110  0.47009  0.09106  Biso   1.000  C 
  C10      1.0000 0.24350  0.46850  0.21264  Biso   1.000  C 
  H5       1.0000 0.22640  0.53750  0.26460  Biso   1.000  H 
  H6       1.0000 0.22320  0.53920  0.06320  Biso   1.000  H 
  C11      1.0000 0.26790  0.36664  0.88068  Biso   1.000  C 
  C12      1.0000 0.32730  0.27756  0.80827  Biso   1.000  C 
  H7       1.0000 0.36560  0.21580  0.84090  Biso   1.000  H 
  C13      1.0000 0.32940  0.28060  0.68839  Biso   1.000  C 
  N3       1.0000 0.27550  0.36647  0.63551  Biso   1.000  N 
  C14      1.0000 0.21660  0.45170  0.70440  Biso   1.000  C 
  C15      1.0000 0.21170  0.45562  0.82495  Biso   1.000  C 
  H8       1.0000 0.17090  0.51750  0.86920  Biso   1.000  H 
  H9       1.0000 0.17690  0.51150  0.66880  Biso   1.000  H 
  H10      1.0000 0.37020  0.22010  0.64210  Biso   1.000  H 
  H11      1.0000 0.30900  0.20590  0.21140  Biso   1.000  H 
  N4       1.0000 0.72450  0.63353  0.36449  Biso   1.000  N 
  C16      1.0000 0.78340  0.54830  0.29560  Biso   1.000  C 
  H12      1.0000 0.82310  0.48850  0.33120  Biso   1.000  H 
  C17      1.0000 0.78830  0.54438  0.17505  Biso   1.000  C 
  H13      1.0000 0.82910  0.48250  0.13080  Biso   1.000  H 
  C18      1.0000 0.73210  0.63336  0.11932  Biso   1.000  C 
  C19      1.0000 0.67270  0.72244  0.19173  Biso   1.000  C 
  H14      1.0000 0.63440  0.78420  0.15910  Biso   1.000  H 
  C20      1.0000 0.67060  0.71940  0.31161  Biso   1.000  C 
  H15      1.0000 0.62980  0.77990  0.35790  Biso   1.000  H 
  H16      1.0000 0.69320  0.80280  0.99080  Biso   1.000  H 
