data_image0
_cell_length_a       9.138
_cell_length_b       12.458
_cell_length_c       37.467
_cell_angle_alpha    84.926
_cell_angle_beta     89.326
_cell_angle_gamma    88.722

_symmetry_space_group_name_H-M    "P 1"
_symmetry_int_tables_number       1

loop_
  _symmetry_equiv_pos_as_xyz
  'x, y, z'

loop_
  _atom_site_label
  _atom_site_occupancy
  _atom_site_fract_x
  _atom_site_fract_y
  _atom_site_fract_z
  _atom_site_thermal_displace_type
  _atom_site_B_iso_or_equiv
  _atom_site_type_symbol
  C1       1.0000 0.16470  0.66410  0.47820  Biso   1.000  C 
  O1       1.0000 0.09630  0.58090  0.47540  Biso   1.000  O 
  C2       1.0000 0.28560  0.69890  0.45200  Biso   1.000  C 
  C3       1.0000 0.35800  0.79890  0.45770  Biso   1.000  C 
  H1       1.0000 0.33490  0.83740  0.47730  Biso   1.000  H 
  C4       1.0000 0.46300  0.83380  0.43250  Biso   1.000  C 
  H2       1.0000 0.51750  0.89360  0.43670  Biso   1.000  H 
  C5       1.0000 0.49030  0.78630  0.40280  Biso   1.000  C 
  C6       1.0000 0.58550  0.83280  0.37310  Biso   1.000  C 
  C7       1.0000 0.73360  0.80020  0.37060  Biso   1.000  C 
  C8       1.0000 0.82150  0.85160  0.34140  Biso   1.000  C 
  C9       1.0000 0.76630  0.92390  0.31580  Biso   1.000  C 
  C10      1.0000 0.85190  0.97160  0.28540  Biso   1.000  C 
  C11      1.0000 0.87210  0.91900  0.25300  Biso   1.000  C 
  C12      1.0000 0.95450  0.96840  0.22450  Biso   1.000  C 
  C13      1.0000 0.02790  0.06680  0.22760  Biso   1.000  C 
  C14      1.0000 0.11160  0.11640  0.19670  Biso   1.000  C 
  C15      1.0000 0.05900  0.22020  0.17840  Biso   1.000  C 
  C16      1.0000 0.13360  0.26290  0.15000  Biso   1.000  C 
  H3       1.0000 0.09560  0.32440  0.13720  Biso   1.000  H 
  C17      1.0000 0.26640  0.21900  0.13860  Biso   1.000  C 
  C18      1.0000 0.34980  0.26900  0.10730  Biso   1.000  C 
  O2       1.0000 0.30220  0.36210  0.09230  Biso   1.000  O 
  Pb1      1.0000 0.51437  0.38899  0.05291  Biso   1.000  Pb
  C19      1.0000 0.29620  0.41300  0.00310  Biso   1.000  C 
  O3       1.0000 0.33190  0.49590  0.01130  Biso   1.000  O 
  O4       1.0000 0.34700  0.31270  0.01510  Biso   1.000  O 
  C20      1.0000 0.16750  0.39430  0.97350  Biso   1.000  C 
  C21      1.0000 0.09900  0.49630  0.96300  Biso   1.000  C 
  C22      1.0000 0.00050  0.49820  0.93510  Biso   1.000  C 
  C23      1.0000 0.97530  0.40690  0.91970  Biso   1.000  C 
  C24      1.0000 0.03880  0.30960  0.93090  Biso   1.000  C 
  H4       1.0000 0.01460  0.24740  0.92040  Biso   1.000  H 
  C25      1.0000 0.14000  0.30580  0.95810  Biso   1.000  C 
  H5       1.0000 0.18870  0.24140  0.96550  Biso   1.000  H 
  C26      1.0000 0.86940  0.42120  0.88780  Biso   1.000  C 
  C27      1.0000 0.72930  0.39340  0.89030  Biso   1.000  C 
  C28      1.0000 0.63370  0.40990  0.86140  Biso   1.000  C 
  C29      1.0000 0.69670  0.44550  0.82530  Biso   1.000  C 
  C30      1.0000 0.84300  0.47520  0.82360  Biso   1.000  C 
  C31      1.0000 0.94340  0.45530  0.85310  Biso   1.000  C 
  C32      1.0000 0.08350  0.48100  0.84870  Biso   1.000  C 
  H6       1.0000 0.14340  0.47190  0.86870  Biso   1.000  H 
  C33      1.0000 0.14340  0.51850  0.81800  Biso   1.000  C 
  H7       1.0000 0.24200  0.53530  0.81640  Biso   1.000  H 
  C34      1.0000 0.05120  0.53220  0.78770  Biso   1.000  C 
  H8       1.0000 0.09010  0.55620  0.76550  Biso   1.000  H 
  C35      1.0000 0.90900  0.51070  0.79090  Biso   1.000  C 
  H9       1.0000 0.85130  0.51980  0.77050  Biso   1.000  H 
  C36      1.0000 0.60110  0.46210  0.79360  Biso   1.000  C 
  C37      1.0000 0.61550  0.38350  0.76760  Biso   1.000  C 
  C38      1.0000 0.52520  0.39580  0.73560  Biso   1.000  C 
  C39      1.0000 0.43820  0.48250  0.72890  Biso   1.000  C 
  C40      1.0000 0.42860  0.56760  0.75370  Biso   1.000  C 
  C41      1.0000 0.34730  0.65970  0.74620  Biso   1.000  C 
  H10      1.0000 0.29630  0.66970  0.72480  Biso   1.000  H 
  C42      1.0000 0.33960  0.73820  0.77000  Biso   1.000  C 
  H11      1.0000 0.27830  0.79850  0.76570  Biso   1.000  H 
  C43      1.0000 0.42900  0.72460  0.80150  Biso   1.000  C 
  H12      1.0000 0.42980  0.77900  0.81700  Biso   1.000  H 
  C44      1.0000 0.51000  0.63400  0.80900  Biso   1.000  C 
  C45      1.0000 0.51640  0.55260  0.78530  Biso   1.000  C 
  H13      1.0000 0.56310  0.62590  0.83010  Biso   1.000  H 
  C46      1.0000 0.34060  0.49960  0.69610  Biso   1.000  C 
  C47      1.0000 0.19610  0.47340  0.69750  Biso   1.000  C 
  C48      1.0000 0.10520  0.49130  0.66740  Biso   1.000  C 
  H14      1.0000 0.00570  0.47740  0.66930  Biso   1.000  H 
  C49      1.0000 0.16770  0.53060  0.63450  Biso   1.000  C 
  C50      1.0000 0.32080  0.54950  0.63050  Biso   1.000  C 
  H15      1.0000 0.36350  0.57120  0.60850  Biso   1.000  H 
  C51      1.0000 0.40500  0.53250  0.66320  Biso   1.000  C 
  H16      1.0000 0.50520  0.54400  0.66210  Biso   1.000  H 
  C52      1.0000 0.07070  0.55820  0.60290  Biso   1.000  C 
  O5       1.0000 0.13620  0.57560  0.57180  Biso   1.000  O 
  Pb2      1.0000 0.94116  0.62960  0.53588  Biso   1.000  Pb
  O6       1.0000 0.13900  0.71860  0.50410  Biso   1.000  O 
  O7       1.0000 0.93700  0.56180  0.60640  Biso   1.000  O 
  O8       1.0000 0.95650  0.80380  0.56360  Biso   1.000  O 
  C53      1.0000 0.03900  0.87400  0.55320  Biso   1.000  C 
  H17      1.0000 0.12040  0.85370  0.53990  Biso   1.000  H 
  N1       1.0000 0.02300  0.98180  0.55950  Biso   1.000  N 
  C54      1.0000 0.12500  0.06880  0.54100  Biso   1.000  C 
  H18      1.0000 0.06690  0.12250  0.52740  Biso   1.000  H 
  H19      1.0000 0.19280  0.03560  0.52540  Biso   1.000  H 
  H20      1.0000 0.17780  0.10200  0.55900  Biso   1.000  H 
  C55      1.0000 0.93100  0.00500  0.58490  Biso   1.000  C 
  H21      1.0000 0.86080  0.05850  0.57540  Biso   1.000  H 
  H22      1.0000 0.98300  0.03240  0.60410  Biso   1.000  H 
  H23      1.0000 0.88030  0.94110  0.59380  Biso   1.000  H 
  H24      1.0000 0.15670  0.44290  0.71900  Biso   1.000  H 
  C56      1.0000 0.54240  0.31540  0.71050  Biso   1.000  C 
  C57      1.0000 0.63400  0.22600  0.71760  Biso   1.000  C 
  C58      1.0000 0.71700  0.21330  0.74790  Biso   1.000  C 
  C59      1.0000 0.71000  0.28600  0.77140  Biso   1.000  C 
  H25      1.0000 0.76770  0.27470  0.79170  Biso   1.000  H 
  H26      1.0000 0.77940  0.15340  0.75190  Biso   1.000  H 
  H27      1.0000 0.63920  0.17350  0.70140  Biso   1.000  H 
  H28      1.0000 0.49100  0.32350  0.68910  Biso   1.000  H 
  C60      1.0000 0.48700  0.38730  0.86280  Biso   1.000  C 
  H29      1.0000 0.43220  0.39500  0.84200  Biso   1.000  H 
  C61      1.0000 0.42170  0.35300  0.89550  Biso   1.000  C 
  H30      1.0000 0.32070  0.34680  0.89760  Biso   1.000  H 
  C62      1.0000 0.51500  0.32630  0.92590  Biso   1.000  C 
  H31      1.0000 0.47800  0.28930  0.94650  Biso   1.000  H 
  C63      1.0000 0.65960  0.35600  0.92430  Biso   1.000  C 
  H32      1.0000 0.71370  0.35200  0.94530  Biso   1.000  H 
  H33      1.0000 0.95220  0.56210  0.92700  Biso   1.000  H 
  H34      1.0000 0.11930  0.55780  0.97420  Biso   1.000  H 
  O9       1.0000 0.46390  0.22710  0.09590  Biso   1.000  O 
  O10      1.0000 0.66680  0.25470  0.02440  Biso   1.000  O 
  C64      1.0000 0.63100  0.17300  0.02650  Biso   1.000  C 
  N2       1.0000 0.71200  0.10000  0.00630  Biso   1.000  N 
  C65      1.0000 0.69300  0.96800  0.01060  Biso   1.000  C 
  H35      1.0000 0.59060  0.95160  0.01300  Biso   1.000  H 
  H36      1.0000 0.74360  0.93760  0.03160  Biso   1.000  H 
  H37      1.0000 0.73260  0.93750  0.98980  Biso   1.000  H 
  C66      1.0000 0.83500  0.12900  0.98340  Biso   1.000  C 
  H38      1.0000 0.80940  0.12420  0.95880  Biso   1.000  H 
  H39      1.0000 0.91640  0.08040  0.98940  Biso   1.000  H 
  H40      1.0000 0.86270  0.20120  0.98670  Biso   1.000  H 
  H41      1.0000 0.55080  0.15070  0.04070  Biso   1.000  H 
  C67      1.0000 0.32450  0.11920  0.15580  Biso   1.000  C 
  H42      1.0000 0.40920  0.08610  0.14770  Biso   1.000  H 
  C68      1.0000 0.24240  0.07400  0.18650  Biso   1.000  C 
  H43      1.0000 0.28050  0.01340  0.19980  Biso   1.000  H 
  H44      1.0000 0.97560  0.25500  0.18660  Biso   1.000  H 
  C69      1.0000 0.01530  0.11950  0.25970  Biso   1.000  C 
  C70      1.0000 0.08740  0.21790  0.26410  Biso   1.000  C 
  H45      1.0000 0.14880  0.24820  0.24620  Biso   1.000  H 
  C71      1.0000 0.06500  0.26770  0.29530  Biso   1.000  C 
  H46      1.0000 0.10530  0.33470  0.29740  Biso   1.000  H 
  C72      1.0000 0.98020  0.21700  0.32460  Biso   1.000  C 
  H47      1.0000 0.97250  0.24890  0.34610  Biso   1.000  H 
  C73      1.0000 0.91240  0.12430  0.32090  Biso   1.000  C 
  H48      1.0000 0.85560  0.09470  0.33990  Biso   1.000  H 
  C74      1.0000 0.92360  0.06880  0.28900  Biso   1.000  C 
  C75      1.0000 0.96100  0.91310  0.19290  Biso   1.000  C 
  H49      1.0000 0.01430  0.94330  0.17330  Biso   1.000  H 
  C76      1.0000 0.89500  0.82130  0.18980  Biso   1.000  C 
  H50      1.0000 0.89850  0.79190  0.16790  Biso   1.000  H 
  C77      1.0000 0.82080  0.76640  0.21880  Biso   1.000  C 
  H51      1.0000 0.78520  0.69760  0.21730  Biso   1.000  H 
  C78      1.0000 0.80350  0.81760  0.24840  Biso   1.000  C 
  H52      1.0000 0.74490  0.78680  0.26690  Biso   1.000  H 
  C79      1.0000 0.61440  0.95500  0.31800  Biso   1.000  C 
  C80      1.0000 0.52410  0.91390  0.34790  Biso   1.000  C 
  C81      1.0000 0.37680  0.94730  0.34810  Biso   1.000  C 
  H53      1.0000 0.31390  0.91130  0.36450  Biso   1.000  H 
  C82      1.0000 0.32160  0.02740  0.32620  Biso   1.000  C 
  C83      1.0000 0.41200  0.06300  0.29590  Biso   1.000  C 
  H54      1.0000 0.36350  0.11563  0.27425  Biso   1.000  H 
  C84      1.0000 0.54900  0.03480  0.29340  Biso   1.000  C 
  H55      1.0000 0.60590  0.06770  0.27500  Biso   1.000  H 
  H56      1.0000 0.23010  0.05860  0.33020  Biso   1.000  H 
  C85      1.0000 0.97370  0.81270  0.33870  Biso   1.000  C 
  H57      1.0000 0.03180  0.83440  0.31890  Biso   1.000  H 
  C86      1.0000 0.02890  0.74260  0.36650  Biso   1.000  C 
  H58      1.0000 0.12860  0.72570  0.36600  Biso   1.000  H 
  C87      1.0000 0.94950  0.69720  0.39400  Biso   1.000  C 
  H59      1.0000 0.99340  0.64730  0.41070  Biso   1.000  H 
  C88      1.0000 0.80140  0.72460  0.39760  Biso   1.000  C 
  H60      1.0000 0.74700  0.69490  0.41700  Biso   1.000  H 
  C89      1.0000 0.42150  0.68690  0.39870  Biso   1.000  C 
  H61      1.0000 0.44550  0.64910  0.37910  Biso   1.000  H 
  C90      1.0000 0.32170  0.64650  0.42300  Biso   1.000  C 
  H62      1.0000 0.27730  0.58180  0.41960  Biso   1.000  H 
