data_image0
_cell_length_a       5.7951
_cell_length_b       12.6459
_cell_length_c       10.8155
_cell_angle_alpha    90
_cell_angle_beta     91.253
_cell_angle_gamma    90

_symmetry_space_group_name_H-M    "P 1"
_symmetry_int_tables_number       1

loop_
  _symmetry_equiv_pos_as_xyz
  'x, y, z'

loop_
  _atom_site_label
  _atom_site_occupancy
  _atom_site_fract_x
  _atom_site_fract_y
  _atom_site_fract_z
  _atom_site_thermal_displace_type
  _atom_site_B_iso_or_equiv
  _atom_site_type_symbol
  Cu1      1.0000 0.50000  0.50000  0.50000  Biso   1.000  Cu
  N1       1.0000 0.34260  0.39920  0.38420  Biso   1.000  N 
  C1       1.0000 0.44860  0.36620  0.28320  Biso   1.000  C 
  H1       1.0000 0.59010  0.39750  0.26300  Biso   1.000  H 
  C2       1.0000 0.35930  0.28770  0.20680  Biso   1.000  C 
  H2       1.0000 0.43860  0.26610  0.13620  Biso   1.000  H 
  C3       1.0000 0.15060  0.24140  0.23640  Biso   1.000  C 
  C4       1.0000 0.05290  0.15150  0.15970  Biso   1.000  C 
  O1       1.0000 0.86240  0.11280  0.18470  Biso   1.000  O 
  Cu2      1.0000 0.00000  0.00000  0.00000  Biso   1.000  Cu
  C5       1.0000 0.94710  0.84850  0.84030  Biso   1.000  C 
  O2       1.0000 0.82360  0.88043  0.92880  Biso   1.000  O 
  O3       1.0000 0.13760  0.88720  0.81530  Biso   1.000  O 
  C6       1.0000 0.84940  0.75860  0.76360  Biso   1.000  C 
  C7       1.0000 0.64070  0.71230  0.79320  Biso   1.000  C 
  H3       1.0000 0.56140  0.73390  0.86380  Biso   1.000  H 
  C8       1.0000 0.55140  0.63380  0.71680  Biso   1.000  C 
  H4       1.0000 0.40990  0.60250  0.73700  Biso   1.000  H 
  N2       1.0000 0.65740  0.60080  0.61580  Biso   1.000  N 
  C9       1.0000 0.86260  0.64300  0.58860  Biso   1.000  C 
  H5       1.0000 0.94060  0.61820  0.51900  Biso   1.000  H 
  C10      1.0000 0.96250  0.72210  0.66040  Biso   1.000  C 
  H6       1.0000 0.10590  0.75090  0.63930  Biso   1.000  H 
  O4       1.0000 0.17640  0.11957  0.07120  Biso   1.000  O 
  N3       1.0000 0.15740  0.89920  0.11580  Biso   1.000  N 
  C11      1.0000 0.05140  0.86620  0.21680  Biso   1.000  C 
  H7       1.0000 0.90990  0.89750  0.23700  Biso   1.000  H 
  C12      1.0000 0.14070  0.78770  0.29320  Biso   1.000  C 
  H8       1.0000 0.06140  0.76610  0.36380  Biso   1.000  H 
  C13      1.0000 0.34940  0.74140  0.26360  Biso   1.000  C 
  C14      1.0000 0.44710  0.65150  0.34030  Biso   1.000  C 
  O5       1.0000 0.32360  0.61957  0.42880  Biso   1.000  O 
  O6       1.0000 0.63760  0.61280  0.31530  Biso   1.000  O 
  C15      1.0000 0.46250  0.77790  0.16040  Biso   1.000  C 
  H9       1.0000 0.60590  0.74910  0.13930  Biso   1.000  H 
  C16      1.0000 0.36260  0.85700  0.08860  Biso   1.000  C 
  H10      1.0000 0.44060  0.88180  0.01900  Biso   1.000  H 
  N4       1.0000 0.84260  0.10080  0.88420  Biso   1.000  N 
  C17      1.0000 0.63740  0.14300  0.91140  Biso   1.000  C 
  C18      1.0000 0.53750  0.22210  0.83960  Biso   1.000  C 
  C19      1.0000 0.65060  0.25860  0.73640  Biso   1.000  C 
  C20      1.0000 0.85930  0.21230  0.70680  Biso   1.000  C 
  H11      1.0000 0.93860  0.23390  0.63620  Biso   1.000  H 
  C21      1.0000 0.94860  0.13380  0.78320  Biso   1.000  C 
  H12      1.0000 0.09010  0.10250  0.76300  Biso   1.000  H 
  C22      1.0000 0.55290  0.34850  0.65970  Biso   1.000  C 
  O7       1.0000 0.67640  0.38043  0.57120  Biso   1.000  O 
  O8       1.0000 0.36240  0.38720  0.68470  Biso   1.000  O 
  H13      1.0000 0.39410  0.25090  0.86070  Biso   1.000  H 
  H14      1.0000 0.55940  0.11820  0.98100  Biso   1.000  H 
  C23      1.0000 0.03750  0.27790  0.33960  Biso   1.000  C 
  H15      1.0000 0.89410  0.24910  0.36070  Biso   1.000  H 
  C24      1.0000 0.13740  0.35700  0.41140  Biso   1.000  C 
  H16      1.0000 0.05940  0.38180  0.48100  Biso   1.000  H 
