data_image0
_cell_length_a       6.352
_cell_length_b       14.863
_cell_length_c       13.441
_cell_angle_alpha    90
_cell_angle_beta     98.928
_cell_angle_gamma    90

_symmetry_space_group_name_H-M    "P 1"
_symmetry_int_tables_number       1

loop_
  _symmetry_equiv_pos_as_xyz
  'x, y, z'

loop_
  _atom_site_label
  _atom_site_occupancy
  _atom_site_fract_x
  _atom_site_fract_y
  _atom_site_fract_z
  _atom_site_thermal_displace_type
  _atom_site_B_iso_or_equiv
  _atom_site_type_symbol
  Cu1      1.0000 0.00000  0.00000  0.50000  Biso   1.000  Cu
  O1       1.0000 0.84760  0.93700  0.38490  Biso   1.000  O 
  C1       1.0000 0.66910  0.89830  0.37880  Biso   1.000  C 
  C2       1.0000 0.55910  0.88730  0.46140  Biso   1.000  C 
  N1       1.0000 0.64130  0.90160  0.56080  Biso   1.000  N 
  N2       1.0000 0.82730  0.93450  0.58710  Biso   1.000  N 
  C3       1.0000 0.89320  0.92840  0.69570  Biso   1.000  C 
  C4       1.0000 0.74920  0.94750  0.76110  Biso   1.000  C 
  H1       1.0000 0.60660  0.96410  0.73560  Biso   1.000  H 
  C5       1.0000 0.81740  0.94200  0.86400  Biso   1.000  C 
  H2       1.0000 0.72230  0.95720  0.90940  Biso   1.000  H 
  C6       1.0000 0.02150  0.91470  0.90100  Biso   1.000  C 
  H3       1.0000 0.06640  0.91050  0.97160  Biso   1.000  H 
  C7       1.0000 0.16110  0.89340  0.83520  Biso   1.000  C 
  H4       1.0000 0.30050  0.87280  0.86090  Biso   1.000  H 
  C8       1.0000 0.09920  0.90180  0.73210  Biso   1.000  C 
  H5       1.0000 0.19710  0.88950  0.68710  Biso   1.000  H 
  C9       1.0000 0.34420  0.85260  0.44720  Biso   1.000  C 
  C10      1.0000 0.25450  0.80790  0.34580  Biso   1.000  C 
  C11      1.0000 0.37590  0.82040  0.26240  Biso   1.000  C 
  C12      1.0000 0.29220  0.78790  0.16640  Biso   1.000  C 
  H6       1.0000 0.15530  0.76060  0.15530  Biso   1.000  H 
  C13      1.0000 0.40840  0.79570  0.08820  Biso   1.000  C 
  C14      1.0000 0.60820  0.83580  0.10410  Biso   1.000  C 
  C15      1.0000 0.69320  0.86980  0.19870  Biso   1.000  C 
  H7       1.0000 0.82890  0.89810  0.20900  Biso   1.000  H 
  C16      1.0000 0.57660  0.86160  0.27800  Biso   1.000  C 
  H8       1.0000 0.68790  0.84020  0.05010  Biso   1.000  H 
  H9       1.0000 0.35160  0.77350  0.02330  Biso   1.000  H 
  O2       1.0000 0.09030  0.76490  0.33960  Biso   1.000  O 
  O3       1.0000 0.22680  0.85740  0.51160  Biso   1.000  O 
  O4       1.0000 0.77320  0.14260  0.48840  Biso   1.000  O 
  C17      1.0000 0.65580  0.14740  0.55280  Biso   1.000  C 
  C18      1.0000 0.44090  0.11270  0.53860  Biso   1.000  C 
  N3       1.0000 0.35870  0.09840  0.43920  Biso   1.000  N 
  N4       1.0000 0.17270  0.06550  0.41290  Biso   1.000  N 
  C19      1.0000 0.10680  0.07160  0.30430  Biso   1.000  C 
  C20      1.0000 0.25080  0.05250  0.23890  Biso   1.000  C 
  C21      1.0000 0.18260  0.05800  0.13600  Biso   1.000  C 
  H10      1.0000 0.27770  0.04280  0.09060  Biso   1.000  H 
  C22      1.0000 0.97850  0.08530  0.09900  Biso   1.000  C 
  C23      1.0000 0.83890  0.10660  0.16480  Biso   1.000  C 
  H11      1.0000 0.69950  0.12720  0.13910  Biso   1.000  H 
  C24      1.0000 0.90080  0.09820  0.26790  Biso   1.000  C 
  H12      1.0000 0.80290  0.11050  0.31290  Biso   1.000  H 
  H13      1.0000 0.93360  0.08950  0.02840  Biso   1.000  H 
  H14      1.0000 0.39340  0.03590  0.26440  Biso   1.000  H 
  C25      1.0000 0.33090  0.10170  0.62120  Biso   1.000  C 
  O5       1.0000 0.15240  0.06300  0.61510  Biso   1.000  O 
  C26      1.0000 0.42340  0.13840  0.72200  Biso   1.000  C 
  C27      1.0000 0.62410  0.17960  0.73760  Biso   1.000  C 
  C28      1.0000 0.70780  0.21210  0.83360  Biso   1.000  C 
  C29      1.0000 0.59160  0.20430  0.91180  Biso   1.000  C 
  C30      1.0000 0.39180  0.16420  0.89590  Biso   1.000  C 
  H15      1.0000 0.31210  0.15980  0.94990  Biso   1.000  H 
  C31      1.0000 0.30680  0.13020  0.80130  Biso   1.000  C 
  H16      1.0000 0.17110  0.10190  0.79100  Biso   1.000  H 
  H17      1.0000 0.64840  0.22650  0.97670  Biso   1.000  H 
  H18      1.0000 0.84470  0.23940  0.84470  Biso   1.000  H 
  C32      1.0000 0.74550  0.19210  0.65420  Biso   1.000  C 
  O6       1.0000 0.90970  0.23510  0.66040  Biso   1.000  O 
