data_image0
_cell_length_a       9.3325
_cell_length_b       17.6438
_cell_length_c       10.3499
_cell_angle_alpha    90
_cell_angle_beta     90
_cell_angle_gamma    90

_symmetry_space_group_name_H-M    "P 1"
_symmetry_int_tables_number       1

loop_
  _symmetry_equiv_pos_as_xyz
  'x, y, z'

loop_
  _atom_site_label
  _atom_site_occupancy
  _atom_site_fract_x
  _atom_site_fract_y
  _atom_site_fract_z
  _atom_site_thermal_displace_type
  _atom_site_B_iso_or_equiv
  _atom_site_type_symbol
  Cd1      1.0000 0.17040  0.25000  0.98186  Biso   1.000  Cd
  I1       1.0000 0.19415  0.25000  0.72122  Biso   1.000  I 
  I2       1.0000 0.93292  0.25000  0.13639  Biso   1.000  I 
  N1       1.0000 0.29230  0.35100  0.06520  Biso   1.000  N 
  C1       1.0000 0.42570  0.37960  0.05050  Biso   1.000  C 
  C2       1.0000 0.23520  0.39590  0.15400  Biso   1.000  C 
  H1       1.0000 0.14100  0.39200  0.18800  Biso   1.000  H 
  N2       1.0000 0.32830  0.44850  0.18890  Biso   1.000  N 
  C3       1.0000 0.30780  0.51140  0.28020  Biso   1.000  C 
  H2       1.0000 0.32700  0.55700  0.23300  Biso   1.000  H 
  H3       1.0000 0.21000  0.50700  0.30700  Biso   1.000  H 
  C4       1.0000 0.40780  0.50550  0.39440  Biso   1.000  C 
  C5       1.0000 0.38970  0.44840  0.48470  Biso   1.000  C 
  H4       1.0000 0.31500  0.41200  0.47200  Biso   1.000  H 
  C6       1.0000 0.48130  0.44240  0.58980  Biso   1.000  C 
  H5       1.0000 0.46700  0.40300  0.65000  Biso   1.000  H 
  C7       1.0000 0.59220  0.49450  0.60560  Biso   1.000  C 
  C8       1.0000 0.61030  0.55160  0.51530  Biso   1.000  C 
  H6       1.0000 0.68500  0.58800  0.52800  Biso   1.000  H 
  C9       1.0000 0.51870  0.55760  0.41020  Biso   1.000  C 
  H7       1.0000 0.53300  0.59700  0.35000  Biso   1.000  H 
  C10      1.0000 0.69220  0.48860  0.71980  Biso   1.000  C 
  H8       1.0000 0.67300  0.44300  0.76700  Biso   1.000  H 
  H9       1.0000 0.79000  0.49300  0.69300  Biso   1.000  H 
  N3       1.0000 0.67170  0.55150  0.81110  Biso   1.000  N 
  C11      1.0000 0.76480  0.60410  0.84600  Biso   1.000  C 
  H10      1.0000 0.85900  0.60800  0.81200  Biso   1.000  H 
  N4       1.0000 0.70770  0.64900  0.93480  Biso   1.000  N 
  C12      1.0000 0.57430  0.62040  0.94950  Biso   1.000  C 
  N5       1.0000 0.54640  0.56140  0.87620  Biso   1.000  N 
  H11      1.0000 0.50600  0.64200  0.00600  Biso   1.000  H 
  Cd2      1.0000 0.82960  0.75000  0.01814  Biso   1.000  Cd
  I3       1.0000 0.80585  0.75000  0.27878  Biso   1.000  I 
  N6       1.0000 0.70770  0.85100  0.93480  Biso   1.000  N 
  C13      1.0000 0.57430  0.87960  0.94950  Biso   1.000  C 
  C14      1.0000 0.76480  0.89590  0.84600  Biso   1.000  C 
  H12      1.0000 0.85900  0.89200  0.81200  Biso   1.000  H 
  N7       1.0000 0.67170  0.94850  0.81110  Biso   1.000  N 
  N8       1.0000 0.54640  0.93860  0.87620  Biso   1.000  N 
  C15      1.0000 0.69220  0.01140  0.71980  Biso   1.000  C 
  C16      1.0000 0.59220  0.00550  0.60560  Biso   1.000  C 
  C17      1.0000 0.48130  0.05760  0.58980  Biso   1.000  C 
  H13      1.0000 0.46700  0.09700  0.65000  Biso   1.000  H 
  C18      1.0000 0.38970  0.05160  0.48470  Biso   1.000  C 
  H14      1.0000 0.31500  0.08800  0.47200  Biso   1.000  H 
  C19      1.0000 0.40780  0.99450  0.39440  Biso   1.000  C 
  C20      1.0000 0.51870  0.94240  0.41020  Biso   1.000  C 
  H15      1.0000 0.53300  0.90300  0.35000  Biso   1.000  H 
  C21      1.0000 0.61030  0.94840  0.51530  Biso   1.000  C 
  H16      1.0000 0.68500  0.91200  0.52800  Biso   1.000  H 
  C22      1.0000 0.30780  0.98860  0.28020  Biso   1.000  C 
  H17      1.0000 0.21000  0.99300  0.30700  Biso   1.000  H 
  H18      1.0000 0.32700  0.94300  0.23300  Biso   1.000  H 
  N9       1.0000 0.32830  0.05150  0.18890  Biso   1.000  N 
  C23      1.0000 0.23520  0.10410  0.15400  Biso   1.000  C 
  H19      1.0000 0.14100  0.10800  0.18800  Biso   1.000  H 
  N10      1.0000 0.29230  0.14900  0.06520  Biso   1.000  N 
  C24      1.0000 0.42570  0.12040  0.05050  Biso   1.000  C 
  H20      1.0000 0.49400  0.14200  0.99400  Biso   1.000  H 
  N11      1.0000 0.45360  0.06140  0.12380  Biso   1.000  N 
  H21      1.0000 0.67300  0.05700  0.76700  Biso   1.000  H 
  H22      1.0000 0.79000  0.00700  0.69300  Biso   1.000  H 
  H23      1.0000 0.50600  0.85800  0.00600  Biso   1.000  H 
  I4       1.0000 0.06708  0.75000  0.86361  Biso   1.000  I 
  N12      1.0000 0.45360  0.43860  0.12380  Biso   1.000  N 
  H24      1.0000 0.49400  0.35800  0.99400  Biso   1.000  H 
