data_image0
_cell_length_a       8.4321
_cell_length_b       11.6068
_cell_length_c       16.2351
_cell_angle_alpha    90
_cell_angle_beta     94.863
_cell_angle_gamma    90

_symmetry_space_group_name_H-M    "P 1"
_symmetry_int_tables_number       1

loop_
  _symmetry_equiv_pos_as_xyz
  'x, y, z'

loop_
  _atom_site_label
  _atom_site_occupancy
  _atom_site_fract_x
  _atom_site_fract_y
  _atom_site_fract_z
  _atom_site_thermal_displace_type
  _atom_site_B_iso_or_equiv
  _atom_site_type_symbol
  I1       1.0000 0.27064  0.42069  0.93043  Biso   1.000  I 
  Cu1      1.0000 0.12616  0.28428  0.82973  Biso   1.000  Cu
  P1       1.0000 0.16248  0.09329  0.83530  Biso   1.000  P 
  N1       1.0000 0.02620  0.01523  0.77578  Biso   1.000  N 
  P2       1.0000 0.04422  0.86953  0.76493  Biso   1.000  P 
  N2       1.0000 0.23220  0.85642  0.73728  Biso   1.000  N 
  C1       1.0000 0.24450  0.87070  0.64700  Biso   1.000  C 
  H1       1.0000 0.35620  0.86480  0.63520  Biso   1.000  H 
  H2       1.0000 0.18240  0.81040  0.61690  Biso   1.000  H 
  H3       1.0000 0.20280  0.94650  0.62950  Biso   1.000  H 
  P3       1.0000 0.39471  0.91249  0.79620  Biso   1.000  P 
  N3       1.0000 0.36360  0.86366  0.89244  Biso   1.000  N 
  C2       1.0000 0.44230  0.75150  0.91310  Biso   1.000  C 
  H4       1.0000 0.38090  0.68910  0.88500  Biso   1.000  H 
  H5       1.0000 0.44770  0.73920  0.97300  Biso   1.000  H 
  H6       1.0000 0.55020  0.75210  0.89500  Biso   1.000  H 
  P4       1.0000 0.18719  0.87871  0.93828  Biso   1.000  P 
  N4       1.0000 0.04920  0.82543  0.86375  Biso   1.000  N 
  C3       1.0000 0.97700  0.71340  0.88322  Biso   1.000  C 
  H7       1.0000 0.87240  0.70620  0.85240  Biso   1.000  H 
  H8       1.0000 0.96490  0.70910  0.94260  Biso   1.000  H 
  H9       1.0000 0.04610  0.65060  0.86750  Biso   1.000  H 
  N5       1.0000 0.15780  0.02525  0.92786  Biso   1.000  N 
  C4       1.0000 0.24480  0.08730  0.99809  Biso   1.000  C 
  H10      1.0000 0.23400  0.17060  0.98940  Biso   1.000  H 
  H11      1.0000 0.19990  0.06610  0.04970  Biso   1.000  H 
  H12      1.0000 0.35760  0.06600  0.00140  Biso   1.000  H 
  N6       1.0000 0.33760  0.05431  0.80059  Biso   1.000  N 
  C5       1.0000 0.46470  0.13960  0.80210  Biso   1.000  C 
  H13      1.0000 0.53340  0.12300  0.75790  Biso   1.000  H 
  H14      1.0000 0.41830  0.21660  0.79390  Biso   1.000  H 
  H15      1.0000 0.52760  0.13660  0.85570  Biso   1.000  H 
  Cu2      1.0000 0.87384  0.78428  0.67027  Biso   1.000  Cu
  P5       1.0000 0.83752  0.59329  0.66470  Biso   1.000  P 
  N7       1.0000 0.66240  0.55431  0.69941  Biso   1.000  N 
  C6       1.0000 0.53530  0.63960  0.69790  Biso   1.000  C 
  H16      1.0000 0.47240  0.63660  0.64430  Biso   1.000  H 
  H17      1.0000 0.58170  0.71660  0.70610  Biso   1.000  H 
  H18      1.0000 0.46660  0.62300  0.74210  Biso   1.000  H 
  P6       1.0000 0.60529  0.41249  0.70380  Biso   1.000  P 
  N8       1.0000 0.63640  0.36366  0.60756  Biso   1.000  N 
  C7       1.0000 0.55770  0.25150  0.58690  Biso   1.000  C 
  H19      1.0000 0.44980  0.25210  0.60500  Biso   1.000  H 
  H20      1.0000 0.55230  0.23920  0.52700  Biso   1.000  H 
  H21      1.0000 0.61910  0.18910  0.61500  Biso   1.000  H 
  P7       1.0000 0.81281  0.37871  0.56172  Biso   1.000  P 
  N9       1.0000 0.95080  0.32543  0.63625  Biso   1.000  N 
  C8       1.0000 0.02300  0.21340  0.61678  Biso   1.000  C 
  H22      1.0000 0.03510  0.20910  0.55740  Biso   1.000  H 
  H23      1.0000 0.12760  0.20620  0.64760  Biso   1.000  H 
  H24      1.0000 0.95390  0.15060  0.63250  Biso   1.000  H 
  P8       1.0000 0.95578  0.36953  0.73507  Biso   1.000  P 
  N10      1.0000 0.76780  0.35642  0.76272  Biso   1.000  N 
  C9       1.0000 0.75550  0.37070  0.85300  Biso   1.000  C 
  H25      1.0000 0.64380  0.36480  0.86480  Biso   1.000  H 
  H26      1.0000 0.79720  0.44650  0.87050  Biso   1.000  H 
  H27      1.0000 0.81760  0.31040  0.88310  Biso   1.000  H 
  N11      1.0000 0.97380  0.51523  0.72422  Biso   1.000  N 
  C10      1.0000 0.13950  0.55220  0.71353  Biso   1.000  C 
  H28      1.0000 0.15550  0.63110  0.73410  Biso   1.000  H 
  H29      1.0000 0.15810  0.54940  0.65480  Biso   1.000  H 
  H30      1.0000 0.21430  0.50040  0.74470  Biso   1.000  H 
  N12      1.0000 0.84220  0.52525  0.57214  Biso   1.000  N 
  C11      1.0000 0.75520  0.58730  0.50191  Biso   1.000  C 
  H31      1.0000 0.64240  0.56600  0.49860  Biso   1.000  H 
  H32      1.0000 0.80010  0.56610  0.45030  Biso   1.000  H 
  H33      1.0000 0.76600  0.67060  0.51060  Biso   1.000  H 
  I2       1.0000 0.72936  0.92069  0.56957  Biso   1.000  I 
  C12      1.0000 0.86050  0.05220  0.78647  Biso   1.000  C 
  H34      1.0000 0.78570  0.00040  0.75530  Biso   1.000  H 
  H35      1.0000 0.84450  0.13110  0.76590  Biso   1.000  H 
  H36      1.0000 0.84190  0.04940  0.84520  Biso   1.000  H 
