data_image0
_cell_length_a       8.3224
_cell_length_b       10.809
_cell_length_c       25.6623
_cell_angle_alpha    90
_cell_angle_beta     96.499
_cell_angle_gamma    90

_symmetry_space_group_name_H-M    "P 1"
_symmetry_int_tables_number       1

loop_
  _symmetry_equiv_pos_as_xyz
  'x, y, z'

loop_
  _atom_site_label
  _atom_site_occupancy
  _atom_site_fract_x
  _atom_site_fract_y
  _atom_site_fract_z
  _atom_site_thermal_displace_type
  _atom_site_B_iso_or_equiv
  _atom_site_type_symbol
  Ag1      1.0000 0.05299  0.12050  0.28284  Biso   1.000  Ag
  O1       1.0000 0.10900  0.03810  0.20072  Biso   1.000  O 
  S1       1.0000 0.25898  0.98570  0.18628  Biso   1.000  S 
  O2       1.0000 0.24840  0.85700  0.17125  Biso   1.000  O 
  Ag2      1.0000 0.44923  0.70049  0.22572  Biso   1.000  Ag
  S2       1.0000 0.21649  0.56039  0.19290  Biso   1.000  S 
  C1       1.0000 0.26040  0.40690  0.21984  Biso   1.000  C 
  H1       1.0000 0.18440  0.34550  0.20220  Biso   1.000  H 
  H2       1.0000 0.37200  0.38210  0.21470  Biso   1.000  H 
  C2       1.0000 0.24130  0.41380  0.27795  Biso   1.000  C 
  H3       1.0000 0.31520  0.47690  0.29530  Biso   1.000  H 
  H4       1.0000 0.12890  0.43670  0.28300  Biso   1.000  H 
  S3       1.0000 0.28997  0.26162  0.30617  Biso   1.000  S 
  C3       1.0000 0.31030  0.29440  0.37491  Biso   1.000  C 
  C4       1.0000 0.18140  0.34620  0.39689  Biso   1.000  C 
  H5       1.0000 0.08290  0.36440  0.37590  Biso   1.000  H 
  C5       1.0000 0.19930  0.37090  0.45043  Biso   1.000  C 
  H6       1.0000 0.11250  0.40650  0.46630  Biso   1.000  H 
  C6       1.0000 0.34320  0.34370  0.48073  Biso   1.000  C 
  H7       1.0000 0.35470  0.36050  0.51730  Biso   1.000  H 
  C7       1.0000 0.46950  0.29240  0.45809  Biso   1.000  C 
  H8       1.0000 0.56780  0.27390  0.47920  Biso   1.000  H 
  C8       1.0000 0.45500  0.26750  0.40504  Biso   1.000  C 
  H9       1.0000 0.54270  0.23250  0.38940  Biso   1.000  H 
  Ag3      1.0000 0.55077  0.20049  0.27428  Biso   1.000  Ag
  O3       1.0000 0.40260  0.01900  0.22079  Biso   1.000  O 
  O4       1.0000 0.61680  0.27590  0.19248  Biso   1.000  O 
  S4       1.0000 0.76956  0.32727  0.18047  Biso   1.000  S 
  C9       1.0000 0.79920  0.24940  0.11889  Biso   1.000  C 
  F1       1.0000 0.80850  0.12760  0.12546  Biso   1.000  F 
  F2       1.0000 0.93390  0.28800  0.10102  Biso   1.000  F 
  F3       1.0000 0.67570  0.27250  0.08232  Biso   1.000  F 
  O5       1.0000 0.76270  0.45620  0.16609  Biso   1.000  O 
  Ag4      1.0000 0.94701  0.62050  0.21716  Biso   1.000  Ag
  S5       1.0000 0.71003  0.76162  0.19383  Biso   1.000  S 
  C10      1.0000 0.75870  0.91380  0.22205  Biso   1.000  C 
  H10      1.0000 0.68480  0.97690  0.20470  Biso   1.000  H 
  H11      1.0000 0.87110  0.93670  0.21700  Biso   1.000  H 
  C11      1.0000 0.73960  0.90690  0.28016  Biso   1.000  C 
  H12      1.0000 0.81560  0.84550  0.29780  Biso   1.000  H 
  H13      1.0000 0.62800  0.88210  0.28530  Biso   1.000  H 
  S6       1.0000 0.78351  0.06039  0.30710  Biso   1.000  S 
  C12      1.0000 0.77630  0.04060  0.37569  Biso   1.000  C 
  C13      1.0000 0.88720  0.10390  0.41001  Biso   1.000  C 
  H14      1.0000 0.97070  0.15080  0.39700  Biso   1.000  H 
  C14      1.0000 0.87610  0.09880  0.46328  Biso   1.000  C 
  C15      1.0000 0.75710  0.02760  0.48264  Biso   1.000  C 
  H15      1.0000 0.75170  0.02300  0.51940  Biso   1.000  H 
  C16      1.0000 0.64620  0.96320  0.44829  Biso   1.000  C 
  H16      1.0000 0.56500  0.91440  0.46150  Biso   1.000  H 
  C17      1.0000 0.65400  0.97030  0.39430  Biso   1.000  C 
  H17      1.0000 0.57720  0.92780  0.37060  Biso   1.000  H 
  H18      1.0000 0.95020  0.14420  0.48680  Biso   1.000  H 
  C18      1.0000 0.68970  0.79440  0.12509  Biso   1.000  C 
  C19      1.0000 0.54500  0.76750  0.09496  Biso   1.000  C 
  H19      1.0000 0.45730  0.73250  0.11060  Biso   1.000  H 
  C20      1.0000 0.53050  0.79240  0.04191  Biso   1.000  C 
  H20      1.0000 0.43220  0.77390  0.02080  Biso   1.000  H 
  C21      1.0000 0.65680  0.84370  0.01927  Biso   1.000  C 
  C22      1.0000 0.80070  0.87090  0.04957  Biso   1.000  C 
  H21      1.0000 0.88750  0.90650  0.03370  Biso   1.000  H 
  C23      1.0000 0.81860  0.84620  0.10311  Biso   1.000  C 
  H22      1.0000 0.91710  0.86440  0.12410  Biso   1.000  H 
  H23      1.0000 0.64530  0.86050  0.98270  Biso   1.000  H 
  O6       1.0000 0.89100  0.53810  0.29928  Biso   1.000  O 
  S7       1.0000 0.74102  0.48570  0.31372  Biso   1.000  S 
  O7       1.0000 0.75160  0.35700  0.32875  Biso   1.000  O 
  O8       1.0000 0.59740  0.51900  0.27921  Biso   1.000  O 
  C24      1.0000 0.71470  0.56610  0.37487  Biso   1.000  C 
  F4       1.0000 0.82940  0.53270  0.41281  Biso   1.000  F 
  F5       1.0000 0.72230  0.68820  0.36927  Biso   1.000  F 
  F6       1.0000 0.57180  0.53950  0.39063  Biso   1.000  F 
  O9       1.0000 0.90800  0.29170  0.21603  Biso   1.000  O 
  C25      1.0000 0.22370  0.54060  0.12431  Biso   1.000  C 
  C26      1.0000 0.34600  0.47030  0.10570  Biso   1.000  C 
  H24      1.0000 0.42280  0.42780  0.12940  Biso   1.000  H 
  C27      1.0000 0.35380  0.46320  0.05171  Biso   1.000  C 
  H25      1.0000 0.43500  0.41440  0.03850  Biso   1.000  H 
  C28      1.0000 0.24290  0.52760  0.01736  Biso   1.000  C 
  C29      1.0000 0.12390  0.59880  0.03672  Biso   1.000  C 
  H26      1.0000 0.04980  0.64420  0.01320  Biso   1.000  H 
  C30      1.0000 0.11280  0.60390  0.08999  Biso   1.000  C 
  H27      1.0000 0.02930  0.65080  0.10300  Biso   1.000  H 
  H28      1.0000 0.24830  0.52300  0.98060  Biso   1.000  H 
  O10      1.0000 0.38320  0.77590  0.30752  Biso   1.000  O 
  S8       1.0000 0.23044  0.82727  0.31953  Biso   1.000  S 
  O11      1.0000 0.23730  0.95620  0.33391  Biso   1.000  O 
  O12      1.0000 0.09200  0.79170  0.28397  Biso   1.000  O 
  C31      1.0000 0.20080  0.74940  0.38111  Biso   1.000  C 
  F7       1.0000 0.19150  0.62760  0.37454  Biso   1.000  F 
  F8       1.0000 0.06610  0.78800  0.39898  Biso   1.000  F 
  F9       1.0000 0.32430  0.77250  0.41768  Biso   1.000  F 
  C32      1.0000 0.28530  0.06610  0.12513  Biso   1.000  C 
  F10      1.0000 0.17060  0.03270  0.08719  Biso   1.000  F 
  F11      1.0000 0.27770  0.18820  0.13073  Biso   1.000  F 
  F12      1.0000 0.42820  0.03950  0.10937  Biso   1.000  F 
