data_image0
_cell_length_a       15.379
_cell_length_b       15.449
_cell_length_c       18.407
_cell_angle_alpha    90
_cell_angle_beta     90
_cell_angle_gamma    90

_symmetry_space_group_name_H-M    "P 1"
_symmetry_int_tables_number       1

loop_
  _symmetry_equiv_pos_as_xyz
  'x, y, z'

loop_
  _atom_site_label
  _atom_site_occupancy
  _atom_site_fract_x
  _atom_site_fract_y
  _atom_site_fract_z
  _atom_site_thermal_displace_type
  _atom_site_B_iso_or_equiv
  _atom_site_type_symbol
  Zn1      1.0000 0.20052  0.13963  0.40614  Biso   1.000  Zn
  N1       1.0000 0.16260  0.03710  0.34885  Biso   1.000  N 
  C1       1.0000 0.18950  0.01270  0.28230  Biso   1.000  C 
  H1       1.0000 0.23640  0.03600  0.25720  Biso   1.000  H 
  C2       1.0000 0.09520  0.98730  0.36200  Biso   1.000  C 
  H2       1.0000 0.06330  0.99030  0.40480  Biso   1.000  H 
  C3       1.0000 0.13730  0.94900  0.25790  Biso   1.000  C 
  H3       1.0000 0.14240  0.92120  0.21330  Biso   1.000  H 
  N2       1.0000 0.07650  0.93220  0.30859  Biso   1.000  N 
  Zn2      1.0000 0.99121  0.83582  0.31534  Biso   1.000  Zn
  N3       1.0000 0.93830  0.81150  0.22014  Biso   1.000  N 
  C4       1.0000 0.90210  0.73750  0.20060  Biso   1.000  C 
  H4       1.0000 0.90180  0.68870  0.23020  Biso   1.000  H 
  C5       1.0000 0.92410  0.86440  0.16290  Biso   1.000  C 
  C6       1.0000 0.88050  0.82060  0.11060  Biso   1.000  C 
  H5       1.0000 0.86330  0.84260  0.06580  Biso   1.000  H 
  N4       1.0000 0.86640  0.73900  0.13502  Biso   1.000  N 
  Zn3      1.0000 0.79948  0.63963  0.09386  Biso   1.000  Zn
  N5       1.0000 0.67410  0.66190  0.11180  Biso   1.000  N 
  C7       1.0000 0.64350  0.73460  0.13940  Biso   1.000  C 
  C8       1.0000 0.60340  0.61350  0.09690  Biso   1.000  C 
  H6       1.0000 0.60360  0.55880  0.07570  Biso   1.000  H 
  C9       1.0000 0.53160  0.65820  0.11800  Biso   1.000  C 
  H7       1.0000 0.47450  0.63910  0.11410  Biso   1.000  H 
  N6       1.0000 0.55760  0.73580  0.14580  Biso   1.000  N 
  Zn4      1.0000 0.49121  0.83582  0.18466  Biso   1.000  Zn
  N7       1.0000 0.40000  0.86700  0.11329  Biso   1.000  N 
  C10      1.0000 0.32840  0.91460  0.12400  Biso   1.000  C 
  H8       1.0000 0.31170  0.93910  0.16800  Biso   1.000  H 
  C11      1.0000 0.39510  0.84590  0.04480  Biso   1.000  C 
  C12      1.0000 0.28450  0.92130  0.06140  Biso   1.000  C 
  H9       1.0000 0.23300  0.95180  0.05460  Biso   1.000  H 
  N8       1.0000 0.32770  0.87620  0.00974  Biso   1.000  N 
  Zn5      1.0000 0.29948  0.86037  0.90614  Biso   1.000  Zn
  N9       1.0000 0.36640  0.76100  0.86498  Biso   1.000  N 
  C13      1.0000 0.38050  0.67940  0.88940  Biso   1.000  C 
  H10      1.0000 0.36330  0.65740  0.93420  Biso   1.000  H 
  C14      1.0000 0.42410  0.63560  0.83710  Biso   1.000  C 
  H11      1.0000 0.44150  0.57810  0.84010  Biso   1.000  H 
  N10      1.0000 0.43830  0.68850  0.77986  Biso   1.000  N 
  C15      1.0000 0.40210  0.76250  0.79940  Biso   1.000  C 
  H12      1.0000 0.40180  0.81130  0.76980  Biso   1.000  H 
  Zn6      1.0000 0.49121  0.66418  0.68466  Biso   1.000  Zn
  N11      1.0000 0.40000  0.63300  0.61329  Biso   1.000  N 
  C16      1.0000 0.39510  0.65410  0.54480  Biso   1.000  C 
  C17      1.0000 0.28450  0.57870  0.56140  Biso   1.000  C 
  H13      1.0000 0.23300  0.54820  0.55460  Biso   1.000  H 
  C18      1.0000 0.32840  0.58540  0.62400  Biso   1.000  C 
  H14      1.0000 0.31170  0.56090  0.66800  Biso   1.000  H 
  N12      1.0000 0.32770  0.62380  0.50974  Biso   1.000  N 
  Zn7      1.0000 0.29948  0.63963  0.40614  Biso   1.000  Zn
  N13      1.0000 0.33740  0.53710  0.34885  Biso   1.000  N 
  C19      1.0000 0.40480  0.48730  0.36200  Biso   1.000  C 
  H15      1.0000 0.43670  0.49030  0.40480  Biso   1.000  H 
  C20      1.0000 0.36270  0.44900  0.25790  Biso   1.000  C 
  H16      1.0000 0.35760  0.42120  0.21330  Biso   1.000  H 
  N14      1.0000 0.42350  0.43220  0.30859  Biso   1.000  N 
  Zn8      1.0000 0.50879  0.33582  0.31534  Biso   1.000  Zn
  N15      1.0000 0.44240  0.23580  0.35420  Biso   1.000  N 
  C21      1.0000 0.35650  0.23460  0.36060  Biso   1.000  C 
  C22      1.0000 0.39660  0.11350  0.40310  Biso   1.000  C 
  H17      1.0000 0.39640  0.05880  0.42430  Biso   1.000  H 
  C23      1.0000 0.46840  0.15820  0.38200  Biso   1.000  C 
  H18      1.0000 0.52550  0.13910  0.38590  Biso   1.000  H 
  N16      1.0000 0.32590  0.16190  0.38820  Biso   1.000  N 
  H19      1.0000 0.32120  0.28060  0.34680  Biso   1.000  H 
  N17      1.0000 0.56170  0.31150  0.22014  Biso   1.000  N 
  C24      1.0000 0.59790  0.23750  0.20060  Biso   1.000  C 
  H20      1.0000 0.59820  0.18870  0.23020  Biso   1.000  H 
  C25      1.0000 0.57590  0.36440  0.16290  Biso   1.000  C 
  C26      1.0000 0.61950  0.32060  0.11060  Biso   1.000  C 
  H21      1.0000 0.63670  0.34260  0.06580  Biso   1.000  H 
  N18      1.0000 0.63360  0.23900  0.13502  Biso   1.000  N 
  Zn9      1.0000 0.70052  0.13963  0.09386  Biso   1.000  Zn
  N19      1.0000 0.66260  0.03710  0.15115  Biso   1.000  N 
  C27      1.0000 0.68950  0.01270  0.21770  Biso   1.000  C 
  H22      1.0000 0.73640  0.03600  0.24280  Biso   1.000  H 
  C28      1.0000 0.59520  0.98730  0.13800  Biso   1.000  C 
  H23      1.0000 0.56330  0.99030  0.09520  Biso   1.000  H 
  C29      1.0000 0.63730  0.94900  0.24210  Biso   1.000  C 
  H24      1.0000 0.64240  0.92120  0.28670  Biso   1.000  H 
  N20      1.0000 0.57650  0.93220  0.19141  Biso   1.000  N 
  N21      1.0000 0.82590  0.16190  0.11180  Biso   1.000  N 
  C30      1.0000 0.89660  0.11350  0.09690  Biso   1.000  C 
  C31      1.0000 0.96840  0.15820  0.11800  Biso   1.000  C 
  H25      1.0000 0.02550  0.13910  0.11410  Biso   1.000  H 
  N22      1.0000 0.94240  0.23580  0.14580  Biso   1.000  N 
  C32      1.0000 0.85650  0.23460  0.13940  Biso   1.000  C 
  H26      1.0000 0.82120  0.28060  0.15320  Biso   1.000  H 
  Zn10     1.0000 0.00879  0.33582  0.18466  Biso   1.000  Zn
  N23      1.0000 0.10000  0.36700  0.11329  Biso   1.000  N 
  C33      1.0000 0.17160  0.41460  0.12400  Biso   1.000  C 
  H27      1.0000 0.18830  0.43910  0.16800  Biso   1.000  H 
  C34      1.0000 0.10490  0.34590  0.04480  Biso   1.000  C 
  H28      1.0000 0.06320  0.31160  0.02230  Biso   1.000  H 
  C35      1.0000 0.21550  0.42130  0.06140  Biso   1.000  C 
  H29      1.0000 0.26700  0.45180  0.05460  Biso   1.000  H 
  N24      1.0000 0.17230  0.37620  0.00974  Biso   1.000  N 
  Zn11     1.0000 0.20052  0.36037  0.90614  Biso   1.000  Zn
  N25      1.0000 0.13360  0.26100  0.86498  Biso   1.000  N 
  C36      1.0000 0.11950  0.17940  0.88940  Biso   1.000  C 
  H30      1.0000 0.13670  0.15740  0.93420  Biso   1.000  H 
  C37      1.0000 0.07590  0.13560  0.83710  Biso   1.000  C 
  H31      1.0000 0.05850  0.07810  0.84010  Biso   1.000  H 
  N26      1.0000 0.06170  0.18850  0.77986  Biso   1.000  N 
  C38      1.0000 0.09790  0.26250  0.79940  Biso   1.000  C 
  H32      1.0000 0.09820  0.31130  0.76980  Biso   1.000  H 
  Zn12     1.0000 0.00879  0.16418  0.68466  Biso   1.000  Zn
  N27      1.0000 0.10000  0.13300  0.61329  Biso   1.000  N 
  C39      1.0000 0.17160  0.08540  0.62400  Biso   1.000  C 
  H33      1.0000 0.18830  0.06090  0.66800  Biso   1.000  H 
  C40      1.0000 0.10490  0.15410  0.54480  Biso   1.000  C 
  H34      1.0000 0.06320  0.18840  0.52230  Biso   1.000  H 
  C41      1.0000 0.21550  0.07870  0.56140  Biso   1.000  C 
  H35      1.0000 0.26700  0.04820  0.55460  Biso   1.000  H 
  N28      1.0000 0.17230  0.12380  0.50974  Biso   1.000  N 
  N29      1.0000 0.94240  0.26420  0.64580  Biso   1.000  N 
  C42      1.0000 0.96840  0.34180  0.61800  Biso   1.000  C 
  H36      1.0000 0.02550  0.36090  0.61410  Biso   1.000  H 
  C43      1.0000 0.89660  0.38650  0.59690  Biso   1.000  C 
  H37      1.0000 0.89640  0.44120  0.57570  Biso   1.000  H 
  N30      1.0000 0.82590  0.33810  0.61180  Biso   1.000  N 
  C44      1.0000 0.85650  0.26540  0.63940  Biso   1.000  C 
  H38      1.0000 0.82120  0.21940  0.65320  Biso   1.000  H 
  Zn13     1.0000 0.70052  0.36037  0.59386  Biso   1.000  Zn
  N31      1.0000 0.67230  0.37620  0.49026  Biso   1.000  N 
  C45      1.0000 0.60490  0.34590  0.45520  Biso   1.000  C 
  H39      1.0000 0.56320  0.31160  0.47770  Biso   1.000  H 
  C46      1.0000 0.67160  0.41460  0.37600  Biso   1.000  C 
  H40      1.0000 0.68830  0.43910  0.33200  Biso   1.000  H 
  N32      1.0000 0.60000  0.36700  0.38671  Biso   1.000  N 
  C47      1.0000 0.71550  0.42130  0.43860  Biso   1.000  C 
  H41      1.0000 0.76700  0.45180  0.44540  Biso   1.000  H 
  N33      1.0000 0.63360  0.26100  0.63502  Biso   1.000  N 
  C48      1.0000 0.61950  0.17940  0.61060  Biso   1.000  C 
  H42      1.0000 0.63670  0.15740  0.56580  Biso   1.000  H 
  C49      1.0000 0.57590  0.13560  0.66290  Biso   1.000  C 
  H43      1.0000 0.55850  0.07810  0.65990  Biso   1.000  H 
  N34      1.0000 0.56170  0.18850  0.72014  Biso   1.000  N 
  C50      1.0000 0.59790  0.26250  0.70060  Biso   1.000  C 
  H44      1.0000 0.59820  0.31130  0.73020  Biso   1.000  H 
  Zn14     1.0000 0.50879  0.16418  0.81534  Biso   1.000  Zn
  N35      1.0000 0.42350  0.06780  0.80859  Biso   1.000  N 
  C51      1.0000 0.36270  0.05100  0.75790  Biso   1.000  C 
  H45      1.0000 0.35760  0.07880  0.71330  Biso   1.000  H 
  C52      1.0000 0.40480  0.01270  0.86200  Biso   1.000  C 
  H46      1.0000 0.43670  0.00970  0.90480  Biso   1.000  H 
  N36      1.0000 0.33740  0.96290  0.84885  Biso   1.000  N 
  C53      1.0000 0.31050  0.98730  0.78230  Biso   1.000  C 
  H47      1.0000 0.26360  0.96400  0.75720  Biso   1.000  H 
  N37      1.0000 0.44240  0.26420  0.85420  Biso   1.000  N 
  C54      1.0000 0.35650  0.26540  0.86060  Biso   1.000  C 
  H48      1.0000 0.32120  0.21940  0.84680  Biso   1.000  H 
  C55      1.0000 0.39660  0.38650  0.90310  Biso   1.000  C 
  C56      1.0000 0.46840  0.34180  0.88200  Biso   1.000  C 
  H49      1.0000 0.52550  0.36090  0.88590  Biso   1.000  H 
  H50      1.0000 0.39640  0.44120  0.92430  Biso   1.000  H 
  N38      1.0000 0.32590  0.33810  0.88820  Biso   1.000  N 
  N39      1.0000 0.60000  0.13300  0.88671  Biso   1.000  N 
  C57      1.0000 0.67160  0.08540  0.87600  Biso   1.000  C 
  H51      1.0000 0.68830  0.06090  0.83200  Biso   1.000  H 
  C58      1.0000 0.60490  0.15410  0.95520  Biso   1.000  C 
  H52      1.0000 0.56320  0.18840  0.97770  Biso   1.000  H 
  C59      1.0000 0.71550  0.07870  0.93860  Biso   1.000  C 
  H53      1.0000 0.76700  0.04820  0.94540  Biso   1.000  H 
  N40      1.0000 0.67230  0.12380  0.99026  Biso   1.000  N 
  N41      1.0000 0.66260  0.46290  0.65115  Biso   1.000  N 
  C60      1.0000 0.68950  0.48730  0.71770  Biso   1.000  C 
  H54      1.0000 0.73640  0.46400  0.74280  Biso   1.000  H 
  C61      1.0000 0.63730  0.55100  0.74210  Biso   1.000  C 
  H55      1.0000 0.64240  0.57880  0.78670  Biso   1.000  H 
  N42      1.0000 0.57650  0.56780  0.69141  Biso   1.000  N 
  C62      1.0000 0.59520  0.51270  0.63800  Biso   1.000  C 
  H56      1.0000 0.56330  0.50970  0.59520  Biso   1.000  H 
  N43      1.0000 0.92350  0.06780  0.69141  Biso   1.000  N 
  C63      1.0000 0.86270  0.05100  0.74210  Biso   1.000  C 
  H57      1.0000 0.85760  0.07880  0.78670  Biso   1.000  H 
  C64      1.0000 0.90480  0.01270  0.63800  Biso   1.000  C 
  H58      1.0000 0.93670  0.00970  0.59520  Biso   1.000  H 
  N44      1.0000 0.83740  0.96290  0.65115  Biso   1.000  N 
  C65      1.0000 0.81050  0.98730  0.71770  Biso   1.000  C 
  H59      1.0000 0.76360  0.96400  0.74280  Biso   1.000  H 
  Zn15     1.0000 0.79948  0.86037  0.59386  Biso   1.000  Zn
  N45      1.0000 0.82770  0.87620  0.49026  Biso   1.000  N 
  C66      1.0000 0.78450  0.92130  0.43860  Biso   1.000  C 
  H60      1.0000 0.73300  0.95180  0.44540  Biso   1.000  H 
  C67      1.0000 0.82840  0.91460  0.37600  Biso   1.000  C 
  H61      1.0000 0.81170  0.93910  0.33200  Biso   1.000  H 
  N46      1.0000 0.90000  0.86700  0.38671  Biso   1.000  N 
  C68      1.0000 0.89510  0.84590  0.45520  Biso   1.000  C 
  H62      1.0000 0.93680  0.81160  0.47770  Biso   1.000  H 
  N47      1.0000 0.86640  0.76100  0.63502  Biso   1.000  N 
  C69      1.0000 0.88050  0.67940  0.61060  Biso   1.000  C 
  H63      1.0000 0.86330  0.65740  0.56580  Biso   1.000  H 
  C70      1.0000 0.92410  0.63560  0.66290  Biso   1.000  C 
  H64      1.0000 0.94150  0.57810  0.65990  Biso   1.000  H 
  N48      1.0000 0.93830  0.68850  0.72014  Biso   1.000  N 
  C71      1.0000 0.90210  0.76250  0.70060  Biso   1.000  C 
  H65      1.0000 0.90180  0.81130  0.73020  Biso   1.000  H 
  Zn16     1.0000 0.99121  0.66418  0.81534  Biso   1.000  Zn
  N49      1.0000 0.90000  0.63300  0.88671  Biso   1.000  N 
  C72      1.0000 0.89510  0.65410  0.95520  Biso   1.000  C 
  C73      1.0000 0.78450  0.57870  0.93860  Biso   1.000  C 
  H66      1.0000 0.73300  0.54820  0.94540  Biso   1.000  H 
  C74      1.0000 0.82840  0.58540  0.87600  Biso   1.000  C 
  H67      1.0000 0.81170  0.56090  0.83200  Biso   1.000  H 
  N50      1.0000 0.82770  0.62380  0.99026  Biso   1.000  N 
  H68      1.0000 0.93680  0.68840  0.97770  Biso   1.000  H 
  N51      1.0000 0.07650  0.56780  0.80859  Biso   1.000  N 
  C75      1.0000 0.13730  0.55100  0.75790  Biso   1.000  C 
  H69      1.0000 0.14240  0.57880  0.71330  Biso   1.000  H 
  C76      1.0000 0.09520  0.51270  0.86200  Biso   1.000  C 
  C77      1.0000 0.18950  0.48730  0.78230  Biso   1.000  C 
  H70      1.0000 0.23640  0.46400  0.75720  Biso   1.000  H 
  N52      1.0000 0.16260  0.46290  0.84885  Biso   1.000  N 
  H71      1.0000 0.06330  0.50970  0.90480  Biso   1.000  H 
  N53      1.0000 0.05760  0.76420  0.85420  Biso   1.000  N 
  C78      1.0000 0.03160  0.84180  0.88200  Biso   1.000  C 
  C79      1.0000 0.10340  0.88650  0.90310  Biso   1.000  C 
  H72      1.0000 0.10360  0.94120  0.92430  Biso   1.000  H 
  N54      1.0000 0.17410  0.83810  0.88820  Biso   1.000  N 
  C80      1.0000 0.14350  0.76540  0.86060  Biso   1.000  C 
  H73      1.0000 0.17880  0.71940  0.84680  Biso   1.000  H 
  H74      1.0000 0.97450  0.86090  0.88590  Biso   1.000  H 
  N55      1.0000 0.67410  0.83810  0.61180  Biso   1.000  N 
  C81      1.0000 0.60340  0.88650  0.59690  Biso   1.000  C 
  C82      1.0000 0.53160  0.84180  0.61800  Biso   1.000  C 
  H75      1.0000 0.47450  0.86090  0.61410  Biso   1.000  H 
  N56      1.0000 0.55760  0.76420  0.64580  Biso   1.000  N 
  C83      1.0000 0.64350  0.76540  0.63940  Biso   1.000  C 
  H76      1.0000 0.67880  0.71940  0.65320  Biso   1.000  H 
  H77      1.0000 0.60360  0.94120  0.57570  Biso   1.000  H 
  N57      1.0000 0.06170  0.31150  0.27986  Biso   1.000  N 
  C84      1.0000 0.09790  0.23750  0.29940  Biso   1.000  C 
  H78      1.0000 0.09820  0.18870  0.26980  Biso   1.000  H 
  C85      1.0000 0.07590  0.36440  0.33710  Biso   1.000  C 
  C86      1.0000 0.11950  0.32060  0.38940  Biso   1.000  C 
  H79      1.0000 0.13670  0.34260  0.43420  Biso   1.000  H 
  N58      1.0000 0.13360  0.23900  0.36498  Biso   1.000  N 
  H80      1.0000 0.05850  0.42190  0.34010  Biso   1.000  H 
  N59      1.0000 0.92350  0.43220  0.19141  Biso   1.000  N 
  C87      1.0000 0.90480  0.48730  0.13800  Biso   1.000  C 
  H81      1.0000 0.93670  0.49030  0.09520  Biso   1.000  H 
  C88      1.0000 0.86270  0.44900  0.24210  Biso   1.000  C 
  H82      1.0000 0.85760  0.42120  0.28670  Biso   1.000  H 
  C89      1.0000 0.81050  0.51270  0.21770  Biso   1.000  C 
  H83      1.0000 0.76360  0.53600  0.24280  Biso   1.000  H 
  N60      1.0000 0.83740  0.53710  0.15115  Biso   1.000  N 
  H84      1.0000 0.89640  0.05880  0.07570  Biso   1.000  H 
  H85      1.0000 0.55850  0.42190  0.15990  Biso   1.000  H 
  C90      1.0000 0.31050  0.51270  0.28230  Biso   1.000  C 
  H86      1.0000 0.26360  0.53600  0.25720  Biso   1.000  H 
  N61      1.0000 0.17410  0.66190  0.38820  Biso   1.000  N 
  C91      1.0000 0.10340  0.61350  0.40310  Biso   1.000  C 
  H87      1.0000 0.10360  0.55880  0.42430  Biso   1.000  H 
  C92      1.0000 0.03160  0.65820  0.38200  Biso   1.000  C 
  N62      1.0000 0.05760  0.73580  0.35420  Biso   1.000  N 
  C93      1.0000 0.14350  0.73460  0.36060  Biso   1.000  C 
  H88      1.0000 0.17880  0.78060  0.34680  Biso   1.000  H 
  H89      1.0000 0.97450  0.63910  0.38590  Biso   1.000  H 
  N63      1.0000 0.36640  0.73900  0.36498  Biso   1.000  N 
  C94      1.0000 0.40210  0.73750  0.29940  Biso   1.000  C 
  H90      1.0000 0.40180  0.68870  0.26980  Biso   1.000  H 
  C95      1.0000 0.42410  0.86440  0.33710  Biso   1.000  C 
  C96      1.0000 0.38050  0.82060  0.38940  Biso   1.000  C 
  H91      1.0000 0.36330  0.84260  0.43420  Biso   1.000  H 
  H92      1.0000 0.44150  0.92190  0.34010  Biso   1.000  H 
  N64      1.0000 0.43830  0.81150  0.27986  Biso   1.000  N 
  H93      1.0000 0.43680  0.68840  0.52230  Biso   1.000  H 
  H94      1.0000 0.43680  0.81160  0.02230  Biso   1.000  H 
  H95      1.0000 0.67880  0.78060  0.15320  Biso   1.000  H 
  H96      1.0000 0.94150  0.92190  0.15990  Biso   1.000  H 
