data_image0
_cell_length_a       11.415
_cell_length_b       17.3038
_cell_length_c       9.3802
_cell_angle_alpha    90
_cell_angle_beta     104.701
_cell_angle_gamma    90

_symmetry_space_group_name_H-M    "P 1"
_symmetry_int_tables_number       1

loop_
  _symmetry_equiv_pos_as_xyz
  'x, y, z'

loop_
  _atom_site_label
  _atom_site_occupancy
  _atom_site_fract_x
  _atom_site_fract_y
  _atom_site_fract_z
  _atom_site_thermal_displace_type
  _atom_site_B_iso_or_equiv
  _atom_site_type_symbol
  Ag1      1.0000 0.07394  0.46122  0.12248  Biso   1.000  Ag
  O1       1.0000 0.06860  0.31415  0.11690  Biso   1.000  O 
  C1       1.0000 0.04070  0.27200  0.21000  Biso   1.000  C 
  C2       1.0000 0.11780  0.27450  0.36460  Biso   1.000  C 
  C3       1.0000 0.24630  0.26400  0.40890  Biso   1.000  C 
  C4       1.0000 0.32440  0.24000  0.30990  Biso   1.000  C 
  O2       1.0000 0.28170  0.19430  0.21040  Biso   1.000  O 
  O3       1.0000 0.42850  0.26730  0.33760  Biso   1.000  O 
  C5       1.0000 0.28870  0.27290  0.55690  Biso   1.000  C 
  H1       1.0000 0.37000  0.26760  0.60610  Biso   1.000  H 
  S1       1.0000 0.17910  0.29462  0.64327  Biso   1.000  S 
  C6       1.0000 0.07150  0.29160  0.48140  Biso   1.000  C 
  H2       1.0000 0.98970  0.30060  0.47310  Biso   1.000  H 
  O4       1.0000 0.94990  0.22810  0.18610  Biso   1.000  O 
  N1       1.0000 0.21510  0.46540  0.00770  Biso   1.000  N 
  C7       1.0000 0.27900  0.40190  0.99410  Biso   1.000  C 
  C8       1.0000 0.37610  0.40450  0.92990  Biso   1.000  C 
  C9       1.0000 0.40880  0.47310  0.87900  Biso   1.000  C 
  C10      1.0000 0.51640  0.47820  0.81020  Biso   1.000  C 
  H3       1.0000 0.51280  0.43580  0.74150  Biso   1.000  H 
  C11      1.0000 0.63490  0.47480  0.92780  Biso   1.000  C 
  C12      1.0000 0.74320  0.48830  0.86280  Biso   1.000  C 
  C13      1.0000 0.81550  0.42930  0.83930  Biso   1.000  C 
  C14      1.0000 0.90860  0.44420  0.77380  Biso   1.000  C 
  H4       1.0000 0.95690  0.40320  0.75920  Biso   1.000  H 
  N2       1.0000 0.93280  0.51490  0.73010  Biso   1.000  N 
  Ag2      1.0000 0.07394  0.53878  0.62248  Biso   1.000  Ag
  N3       1.0000 0.21510  0.53460  0.50770  Biso   1.000  N 
  C15      1.0000 0.27900  0.59810  0.49410  Biso   1.000  C 
  C16      1.0000 0.37610  0.59550  0.42990  Biso   1.000  C 
  C17      1.0000 0.40880  0.52690  0.37900  Biso   1.000  C 
  C18      1.0000 0.34270  0.46210  0.39390  Biso   1.000  C 
  H5       1.0000 0.36250  0.41420  0.36150  Biso   1.000  H 
  C19      1.0000 0.24810  0.46920  0.45680  Biso   1.000  C 
  H6       1.0000 0.20370  0.42500  0.46450  Biso   1.000  H 
  C20      1.0000 0.51640  0.52180  0.31020  Biso   1.000  C 
  H7       1.0000 0.51200  0.47380  0.25570  Biso   1.000  H 
  H8       1.0000 0.51280  0.56420  0.24150  Biso   1.000  H 
  C21      1.0000 0.63490  0.52520  0.42780  Biso   1.000  C 
  H9       1.0000 0.63460  0.48620  0.50200  Biso   1.000  H 
  C22      1.0000 0.74320  0.51170  0.36280  Biso   1.000  C 
  C23      1.0000 0.76800  0.43900  0.31960  Biso   1.000  C 
  H10      1.0000 0.72210  0.39700  0.33570  Biso   1.000  H 
  C24      1.0000 0.86060  0.42840  0.25240  Biso   1.000  C 
  N4       1.0000 0.93280  0.48510  0.23010  Biso   1.000  N 
  C25      1.0000 0.90860  0.55580  0.27380  Biso   1.000  C 
  H11      1.0000 0.95690  0.59680  0.25920  Biso   1.000  H 
  C26      1.0000 0.81550  0.57070  0.33930  Biso   1.000  C 
  H12      1.0000 0.80210  0.62080  0.36740  Biso   1.000  H 
  H13      1.0000 0.87370  0.37890  0.22070  Biso   1.000  H 
  H14      1.0000 0.64270  0.57540  0.47530  Biso   1.000  H 
  H15      1.0000 0.41880  0.64030  0.42160  Biso   1.000  H 
  H16      1.0000 0.25770  0.64510  0.52850  Biso   1.000  H 
  O5       1.0000 0.06860  0.68585  0.61690  Biso   1.000  O 
  C27      1.0000 0.04070  0.72800  0.71000  Biso   1.000  C 
  C28      1.0000 0.11780  0.72550  0.86460  Biso   1.000  C 
  C29      1.0000 0.07150  0.70840  0.98140  Biso   1.000  C 
  S2       1.0000 0.17910  0.70538  0.14327  Biso   1.000  S 
  C30      1.0000 0.28870  0.72710  0.05690  Biso   1.000  C 
  H17      1.0000 0.37000  0.73240  0.10610  Biso   1.000  H 
  C31      1.0000 0.24630  0.73600  0.90890  Biso   1.000  C 
  C32      1.0000 0.32440  0.76000  0.80990  Biso   1.000  C 
  O6       1.0000 0.42850  0.73270  0.83760  Biso   1.000  O 
  O7       1.0000 0.28170  0.80570  0.71040  Biso   1.000  O 
  H18      1.0000 0.98970  0.69940  0.97310  Biso   1.000  H 
  O8       1.0000 0.94990  0.77190  0.68610  Biso   1.000  O 
  C33      1.0000 0.86060  0.57160  0.75240  Biso   1.000  C 
  C34      1.0000 0.76800  0.56100  0.81960  Biso   1.000  C 
  H19      1.0000 0.72210  0.60300  0.83570  Biso   1.000  H 
  H20      1.0000 0.87370  0.62110  0.72070  Biso   1.000  H 
  H21      1.0000 0.80210  0.37920  0.86740  Biso   1.000  H 
  H22      1.0000 0.64270  0.42460  0.97530  Biso   1.000  H 
  H23      1.0000 0.63460  0.51380  0.00200  Biso   1.000  H 
  H24      1.0000 0.51200  0.52620  0.75570  Biso   1.000  H 
  C35      1.0000 0.34270  0.53790  0.89390  Biso   1.000  C 
  H25      1.0000 0.36250  0.58580  0.86150  Biso   1.000  H 
  C36      1.0000 0.24810  0.53080  0.95680  Biso   1.000  C 
  H26      1.0000 0.20370  0.57500  0.96450  Biso   1.000  H 
  H27      1.0000 0.41880  0.35970  0.92160  Biso   1.000  H 
  H28      1.0000 0.25770  0.35490  0.02850  Biso   1.000  H 
