data_image0
_cell_length_a       11.7889
_cell_length_b       15.3224
_cell_length_c       16.2584
_cell_angle_alpha    64.192
_cell_angle_beta     73.56
_cell_angle_gamma    73.712

_symmetry_space_group_name_H-M    "P 1"
_symmetry_int_tables_number       1

loop_
  _symmetry_equiv_pos_as_xyz
  'x, y, z'

loop_
  _atom_site_label
  _atom_site_occupancy
  _atom_site_fract_x
  _atom_site_fract_y
  _atom_site_fract_z
  _atom_site_thermal_displace_type
  _atom_site_B_iso_or_equiv
  _atom_site_type_symbol
  Pb1      1.0000 0.16150  0.05358  0.37147  Biso   1.000  Pb
  Pb2      1.0000 0.83850  0.94642  0.62853  Biso   1.000  Pb
  Pb3      1.0000 0.47882  0.12201  0.34268  Biso   1.000  Pb
  Pb4      1.0000 0.52118  0.87799  0.65732  Biso   1.000  Pb
  Pb5      1.0000 0.78375  0.21863  0.31370  Biso   1.000  Pb
  Pb6      1.0000 0.21625  0.78137  0.68630  Biso   1.000  Pb
  I1       1.0000 0.92063  0.16050  0.48783  Biso   1.000  I 
  I2       1.0000 0.07937  0.83950  0.51217  Biso   1.000  I 
  I3       1.0000 0.03498  0.10172  0.21384  Biso   1.000  I 
  I4       1.0000 0.96502  0.89828  0.78616  Biso   1.000  I 
  I5       1.0000 0.24719  0.25886  0.26815  Biso   1.000  I 
  I6       1.0000 0.75281  0.74114  0.73185  Biso   1.000  I 
  I7       1.0000 0.30595  0.01502  0.53840  Biso   1.000  I 
  I8       1.0000 0.69405  0.98498  0.46160  Biso   1.000  I 
  I9       1.0000 0.41402  0.96638  0.27569  Biso   1.000  I 
  I10      1.0000 0.58598  0.03362  0.72431  Biso   1.000  I 
  I11      1.0000 0.50991  0.28089  0.40381  Biso   1.000  I 
  I12      1.0000 0.49009  0.71911  0.59619  Biso   1.000  I 
  I13      1.0000 0.68042  0.19564  0.16376  Biso   1.000  I 
  I14      1.0000 0.31958  0.80436  0.83624  Biso   1.000  I 
  I15      1.0000 0.82493  0.42654  0.21972  Biso   1.000  I 
  I16      1.0000 0.17507  0.57346  0.78028  Biso   1.000  I 
  Fe1      1.0000 0.19696  0.67052  0.21555  Biso   1.000  Fe
  Fe2      1.0000 0.80304  0.32948  0.78445  Biso   1.000  Fe
  C1       1.0000 0.37810  0.49710  0.19200  Biso   1.000  C 
  C2       1.0000 0.62190  0.50290  0.80800  Biso   1.000  C 
  H1       1.0000 0.32730  0.45610  0.23830  Biso   1.000  H 
  H2       1.0000 0.67270  0.54390  0.76170  Biso   1.000  H 
  C3       1.0000 0.48530  0.45400  0.14980  Biso   1.000  C 
  C4       1.0000 0.51470  0.54600  0.85020  Biso   1.000  C 
  H3       1.0000 0.50390  0.38600  0.16650  Biso   1.000  H 
  H4       1.0000 0.49610  0.61400  0.83350  Biso   1.000  H 
  C5       1.0000 0.56320  0.51330  0.08300  Biso   1.000  C 
  C6       1.0000 0.43680  0.48670  0.91700  Biso   1.000  C 
  H5       1.0000 0.63540  0.48560  0.05450  Biso   1.000  H 
  H6       1.0000 0.36460  0.51440  0.94550  Biso   1.000  H 
  C7       1.0000 0.53380  0.61410  0.05830  Biso   1.000  C 
  C8       1.0000 0.46620  0.38590  0.94170  Biso   1.000  C 
  C9       1.0000 0.60610  0.68050  0.99020  Biso   1.000  C 
  C10      1.0000 0.39390  0.31950  0.00980  Biso   1.000  C 
  H7       1.0000 0.67980  0.65620  0.96060  Biso   1.000  H 
  H8       1.0000 0.32020  0.34380  0.03940  Biso   1.000  H 
  C11      1.0000 0.57180  0.77910  0.96630  Biso   1.000  C 
  C12      1.0000 0.42820  0.22090  0.03370  Biso   1.000  C 
  H9       1.0000 0.62180  0.82110  0.92030  Biso   1.000  H 
  H10      1.0000 0.37820  0.17890  0.07970  Biso   1.000  H 
  C13      1.0000 0.45890  0.81980  0.01120  Biso   1.000  C 
  C14      1.0000 0.54110  0.18020  0.98880  Biso   1.000  C 
  C15      1.0000 0.41490  0.92110  0.99310  Biso   1.000  C 
  C16      1.0000 0.58510  0.07890  0.00690  Biso   1.000  C 
  H11      1.0000 0.46020  0.96820  0.94930  Biso   1.000  H 
  H12      1.0000 0.53980  0.03180  0.05070  Biso   1.000  H 
  C17      1.0000 0.30670  0.94850  0.04010  Biso   1.000  C 
  C18      1.0000 0.69330  0.05150  0.95990  Biso   1.000  C 
  H13      1.0000 0.27810  0.01480  0.02980  Biso   1.000  H 
  H14      1.0000 0.72190  0.98520  0.97020  Biso   1.000  H 
  C19      1.0000 0.23790  0.87950  0.10320  Biso   1.000  C 
  C20      1.0000 0.76210  0.12050  0.89680  Biso   1.000  C 
  H15      1.0000 0.16220  0.90150  0.13220  Biso   1.000  H 
  H16      1.0000 0.83780  0.09850  0.86780  Biso   1.000  H 
  C21      1.0000 0.38450  0.75340  0.07980  Biso   1.000  C 
  C22      1.0000 0.61550  0.24660  0.92020  Biso   1.000  C 
  C23      1.0000 0.42430  0.65130  0.10280  Biso   1.000  C 
  C24      1.0000 0.57570  0.34870  0.89720  Biso   1.000  C 
  C25      1.0000 0.14730  0.63430  0.06300  Biso   1.000  C 
  C26      1.0000 0.85270  0.36570  0.93700  Biso   1.000  C 
  H17      1.0000 0.22770  0.60550  0.05170  Biso   1.000  H 
  H18      1.0000 0.77230  0.39450  0.94830  Biso   1.000  H 
  C27      1.0000 0.06770  0.63440  0.01300  Biso   1.000  C 
  C28      1.0000 0.93230  0.36560  0.98700  Biso   1.000  C 
  H19      1.0000 0.09620  0.60450  0.97030  Biso   1.000  H 
  H20      1.0000 0.90380  0.39550  0.02970  Biso   1.000  H 
  C29      1.0000 0.95080  0.67680  0.02560  Biso   1.000  C 
  C30      1.0000 0.04920  0.32320  0.97440  Biso   1.000  C 
  H21      1.0000 0.89920  0.67720  0.99140  Biso   1.000  H 
  H22      1.0000 0.10080  0.32280  0.00860  Biso   1.000  H 
  C31      1.0000 0.90860  0.72030  0.09170  Biso   1.000  C 
  C32      1.0000 0.09140  0.27970  0.90830  Biso   1.000  C 
  C33      1.0000 0.78870  0.76940  0.11070  Biso   1.000  C 
  C34      1.0000 0.21130  0.23060  0.88930  Biso   1.000  C 
  H23      1.0000 0.73170  0.77120  0.08010  Biso   1.000  H 
  H24      1.0000 0.26830  0.22880  0.91990  Biso   1.000  H 
  C35      1.0000 0.75600  0.81270  0.17120  Biso   1.000  C 
  C36      1.0000 0.24400  0.18730  0.82880  Biso   1.000  C 
  H25      1.0000 0.67610  0.84250  0.18290  Biso   1.000  H 
  H26      1.0000 0.32390  0.15750  0.81710  Biso   1.000  H 
  C37      1.0000 0.84040  0.81500  0.21930  Biso   1.000  C 
  C38      1.0000 0.15960  0.18500  0.78070  Biso   1.000  C 
  C39      1.0000 0.81740  0.86460  0.27940  Biso   1.000  C 
  C40      1.0000 0.18260  0.13540  0.72060  Biso   1.000  C 
  H27      1.0000 0.74150  0.90070  0.29180  Biso   1.000  H 
  H28      1.0000 0.25850  0.09930  0.70820  Biso   1.000  H 
  C41      1.0000 0.90680  0.85890  0.31850  Biso   1.000  C 
  C42      1.0000 0.09320  0.14110  0.68150  Biso   1.000  C 
  H29      1.0000 0.89270  0.89270  0.35710  Biso   1.000  H 
  H30      1.0000 0.10730  0.10730  0.64290  Biso   1.000  H 
  C43      1.0000 0.02040  0.80310  0.30250  Biso   1.000  C 
  C44      1.0000 0.97960  0.19690  0.69750  Biso   1.000  C 
  H31      1.0000 0.07960  0.79950  0.33190  Biso   1.000  H 
  H32      1.0000 0.92040  0.20050  0.66810  Biso   1.000  H 
  C45      1.0000 0.95850  0.76410  0.20370  Biso   1.000  C 
  C46      1.0000 0.04150  0.23590  0.79630  Biso   1.000  C 
  C47      1.0000 0.99230  0.71780  0.13820  Biso   1.000  C 
  C48      1.0000 0.00770  0.28220  0.86180  Biso   1.000  C 
  C49      1.0000 0.06260  0.49970  0.30870  Biso   1.000  C 
  C50      1.0000 0.93740  0.50030  0.69130  Biso   1.000  C 
  H33      1.0000 0.03370  0.52120  0.25410  Biso   1.000  H 
  H34      1.0000 0.96630  0.47880  0.74590  Biso   1.000  H 
  C51      1.0000 0.02920  0.41640  0.38200  Biso   1.000  C 
  C52      1.0000 0.97080  0.58360  0.61800  Biso   1.000  C 
  H35      1.0000 0.97570  0.38500  0.37730  Biso   1.000  H 
  H36      1.0000 0.02430  0.61500  0.62270  Biso   1.000  H 
  C53      1.0000 0.07460  0.37970  0.46190  Biso   1.000  C 
  C54      1.0000 0.92540  0.62030  0.53810  Biso   1.000  C 
  H37      1.0000 0.05640  0.32150  0.51060  Biso   1.000  H 
  H38      1.0000 0.94360  0.67850  0.48940  Biso   1.000  H 
  C55      1.0000 0.14960  0.43260  0.46830  Biso   1.000  C 
  C56      1.0000 0.85040  0.56740  0.53170  Biso   1.000  C 
  C57      1.0000 0.19960  0.40310  0.54890  Biso   1.000  C 
  C58      1.0000 0.80040  0.59690  0.45110  Biso   1.000  C 
  H39      1.0000 0.18360  0.34580  0.59990  Biso   1.000  H 
  H40      1.0000 0.81640  0.65420  0.40010  Biso   1.000  H 
  C59      1.0000 0.26970  0.45740  0.55180  Biso   1.000  C 
  C60      1.0000 0.73030  0.54260  0.44820  Biso   1.000  C 
  H41      1.0000 0.30180  0.43640  0.60480  Biso   1.000  H 
  H42      1.0000 0.69820  0.56360  0.39520  Biso   1.000  H 
  C61      1.0000 0.29580  0.54620  0.47550  Biso   1.000  C 
  C62      1.0000 0.70420  0.45380  0.52450  Biso   1.000  C 
  C63      1.0000 0.36890  0.60570  0.47500  Biso   1.000  C 
  C64      1.0000 0.63110  0.39430  0.52500  Biso   1.000  C 
  H43      1.0000 0.40370  0.58900  0.52580  Biso   1.000  H 
  H44      1.0000 0.59630  0.41100  0.47420  Biso   1.000  H 
  C65      1.0000 0.38610  0.68890  0.39670  Biso   1.000  C 
  C66      1.0000 0.61390  0.31110  0.60330  Biso   1.000  C 
  H45      1.0000 0.43060  0.73110  0.39520  Biso   1.000  H 
  H46      1.0000 0.56940  0.26890  0.60480  Biso   1.000  H 
  C67      1.0000 0.33840  0.71140  0.31950  Biso   1.000  C 
  C68      1.0000 0.66160  0.28860  0.68050  Biso   1.000  C 
  H47      1.0000 0.35530  0.76700  0.26660  Biso   1.000  H 
  H48      1.0000 0.64470  0.23300  0.73340  Biso   1.000  H 
  C69      1.0000 0.24850  0.57420  0.39590  Biso   1.000  C 
  C70      1.0000 0.75150  0.42580  0.60410  Biso   1.000  C 
  C71      1.0000 0.17510  0.51770  0.39240  Biso   1.000  C 
  C72      1.0000 0.82490  0.48230  0.60760  Biso   1.000  C 
  N1       1.0000 0.34490  0.59310  0.16960  Biso   1.000  N 
  N2       1.0000 0.65510  0.40690  0.83040  Biso   1.000  N 
  N3       1.0000 0.27430  0.78240  0.12500  Biso   1.000  N 
  N4       1.0000 0.72570  0.21760  0.87500  Biso   1.000  N 
  N5       1.0000 0.11090  0.67430  0.12570  Biso   1.000  N 
  N6       1.0000 0.88910  0.32570  0.87430  Biso   1.000  N 
  N7       1.0000 0.04650  0.75520  0.24660  Biso   1.000  N 
  N8       1.0000 0.95350  0.24480  0.75340  Biso   1.000  N 
  N9       1.0000 0.13470  0.55110  0.31220  Biso   1.000  N 
  N10      1.0000 0.86530  0.44890  0.68780  Biso   1.000  N 
  N11      1.0000 0.27000  0.65710  0.31790  Biso   1.000  N 
  N12      1.0000 0.73000  0.34290  0.68210  Biso   1.000  N 
  O1       1.0000 0.95500  0.04430  0.04470  Biso   1.000  O 
  O2       1.0000 0.04500  0.95570  0.95530  Biso   1.000  O 
  H49      1.0000 0.03923  0.04430  0.04470  Biso   1.000  H 
  H50      1.0000 0.96077  0.95570  0.95530  Biso   1.000  H 
  H51      1.0000 0.91467  0.11277  0.01215  Biso   1.000  H 
  H52      1.0000 0.08533  0.88723  0.98785  Biso   1.000  H 
