data_image0
_cell_length_a       12.6099
_cell_length_b       6.9479
_cell_length_c       20.6847
_cell_angle_alpha    90
_cell_angle_beta     93.151
_cell_angle_gamma    90

_symmetry_space_group_name_H-M    "P 1"
_symmetry_int_tables_number       1

loop_
  _symmetry_equiv_pos_as_xyz
  'x, y, z'

loop_
  _atom_site_label
  _atom_site_occupancy
  _atom_site_fract_x
  _atom_site_fract_y
  _atom_site_fract_z
  _atom_site_thermal_displace_type
  _atom_site_B_iso_or_equiv
  _atom_site_type_symbol
  C1       1.0000 0.97200  0.84030  0.60789  Biso   1.000  C 
  C2       1.0000 0.95780  0.74520  0.67181  Biso   1.000  C 
  C3       1.0000 0.99950  0.56200  0.68441  Biso   1.000  C 
  C4       1.0000 0.98820  0.47700  0.74431  Biso   1.000  C 
  C5       1.0000 0.93390  0.57030  0.79207  Biso   1.000  C 
  C6       1.0000 0.92170  0.46550  0.85725  Biso   1.000  C 
  C7       1.0000 0.82970  0.32000  0.84574  Biso   1.000  C 
  F1       1.0000 0.74237  0.40630  0.81970  Biso   1.000  F 
  F2       1.0000 0.80050  0.23280  0.89994  Biso   1.000  F 
  F3       1.0000 0.85535  0.18160  0.80467  Biso   1.000  F 
  C8       1.0000 0.89270  0.60070  0.91266  Biso   1.000  C 
  F4       1.0000 0.89503  0.50790  0.96938  Biso   1.000  F 
  F5       1.0000 0.96181  0.74760  0.91924  Biso   1.000  F 
  F6       1.0000 0.79531  0.67910  0.90451  Biso   1.000  F 
  C9       1.0000 0.02740  0.36740  0.88026  Biso   1.000  C 
  C10      1.0000 0.12110  0.47270  0.87625  Biso   1.000  C 
  H1       1.0000 0.11862  0.59723  0.85729  Biso   1.000  H 
  C11      1.0000 0.21770  0.39810  0.89952  Biso   1.000  C 
  H2       1.0000 0.28073  0.47183  0.89657  Biso   1.000  H 
  C12      1.0000 0.22280  0.21480  0.92730  Biso   1.000  C 
  C13      1.0000 0.12990  0.10890  0.93076  Biso   1.000  C 
  C14      1.0000 0.03320  0.18390  0.90775  Biso   1.000  C 
  H3       1.0000 0.97034  0.10982  0.91072  Biso   1.000  H 
  H4       1.0000 0.13270  0.98352  0.94911  Biso   1.000  H 
  C15      1.0000 0.32600  0.13610  0.95405  Biso   1.000  C 
  O1       1.0000 0.40761  0.23770  0.94814  Biso   1.000  O 
  Cu1      1.0000 0.54853  0.15066  0.98059  Biso   1.000  Cu
  Cu2      1.0000 0.45147  0.84934  0.01941  Biso   1.000  Cu
  O2       1.0000 0.32485  0.97290  0.98051  Biso   1.000  O 
  O3       1.0000 0.48270  0.74430  0.93432  Biso   1.000  O 
  C16      1.0000 0.52800  0.84030  0.89211  Biso   1.000  C 
  C17      1.0000 0.54220  0.74520  0.82819  Biso   1.000  C 
  C18      1.0000 0.50050  0.56200  0.81559  Biso   1.000  C 
  H5       1.0000 0.46444  0.49564  0.84801  Biso   1.000  H 
  C19      1.0000 0.51180  0.47700  0.75569  Biso   1.000  C 
  H6       1.0000 0.48199  0.35339  0.74711  Biso   1.000  H 
  C20      1.0000 0.56610  0.57030  0.70793  Biso   1.000  C 
  C21      1.0000 0.57830  0.46550  0.64275  Biso   1.000  C 
  C22      1.0000 0.47260  0.36740  0.61974  Biso   1.000  C 
  C23      1.0000 0.46680  0.18390  0.59225  Biso   1.000  C 
  H7       1.0000 0.52966  0.10982  0.58928  Biso   1.000  H 
  C24      1.0000 0.37010  0.10890  0.56924  Biso   1.000  C 
  H8       1.0000 0.36730  0.98352  0.55089  Biso   1.000  H 
  C25      1.0000 0.27720  0.21480  0.57270  Biso   1.000  C 
  C26      1.0000 0.17400  0.13610  0.54595  Biso   1.000  C 
  O4       1.0000 0.09239  0.23770  0.55186  Biso   1.000  O 
  Cu3      1.0000 0.95147  0.15066  0.51941  Biso   1.000  Cu
  Cu4      1.0000 0.04853  0.84934  0.48059  Biso   1.000  Cu
  O5       1.0000 0.90761  0.76230  0.44814  Biso   1.000  O 
  C27      1.0000 0.82600  0.86390  0.45405  Biso   1.000  C 
  C28      1.0000 0.72280  0.78520  0.42730  Biso   1.000  C 
  C29      1.0000 0.62990  0.89110  0.43076  Biso   1.000  C 
  C30      1.0000 0.53320  0.81610  0.40775  Biso   1.000  C 
  H9       1.0000 0.47034  0.89018  0.41072  Biso   1.000  H 
  C31      1.0000 0.52740  0.63260  0.38026  Biso   1.000  C 
  C32      1.0000 0.62110  0.52730  0.37625  Biso   1.000  C 
  H10      1.0000 0.61862  0.40277  0.35729  Biso   1.000  H 
  C33      1.0000 0.71770  0.60190  0.39952  Biso   1.000  C 
  H11      1.0000 0.78073  0.52817  0.39657  Biso   1.000  H 
  C34      1.0000 0.42170  0.53450  0.35725  Biso   1.000  C 
  C35      1.0000 0.39270  0.39930  0.41266  Biso   1.000  C 
  F7       1.0000 0.29531  0.32090  0.40451  Biso   1.000  F 
  F8       1.0000 0.39503  0.49210  0.46938  Biso   1.000  F 
  F9       1.0000 0.46181  0.25240  0.41924  Biso   1.000  F 
  C36      1.0000 0.32970  0.68000  0.34574  Biso   1.000  C 
  F10      1.0000 0.24237  0.59370  0.31970  Biso   1.000  F 
  F11      1.0000 0.35535  0.81840  0.30467  Biso   1.000  F 
  F12      1.0000 0.30050  0.76720  0.39994  Biso   1.000  F 
  C37      1.0000 0.43390  0.42970  0.29207  Biso   1.000  C 
  C38      1.0000 0.48820  0.52300  0.24431  Biso   1.000  C 
  C39      1.0000 0.49950  0.43800  0.18441  Biso   1.000  C 
  H12      1.0000 0.53556  0.50436  0.15199  Biso   1.000  H 
  C40      1.0000 0.45780  0.25480  0.17181  Biso   1.000  C 
  C41      1.0000 0.40290  0.16240  0.21882  Biso   1.000  C 
  H13      1.0000 0.37358  0.03853  0.21023  Biso   1.000  H 
  C42      1.0000 0.39020  0.24880  0.27853  Biso   1.000  C 
  H14      1.0000 0.35164  0.18431  0.31023  Biso   1.000  H 
  C43      1.0000 0.47200  0.15970  0.10789  Biso   1.000  C 
  O6       1.0000 0.51730  0.25570  0.06568  Biso   1.000  O 
  O7       1.0000 0.43662  0.99160  0.09982  Biso   1.000  O 
  H15      1.0000 0.51801  0.64661  0.25289  Biso   1.000  H 
  H16      1.0000 0.63270  0.01649  0.44911  Biso   1.000  H 
  O8       1.0000 0.82485  0.02710  0.48051  Biso   1.000  O 
  O9       1.0000 0.06338  0.99160  0.40018  Biso   1.000  O 
  C44      1.0000 0.02800  0.15970  0.39211  Biso   1.000  C 
  C45      1.0000 0.04220  0.25480  0.32819  Biso   1.000  C 
  C46      1.0000 0.09710  0.16240  0.28118  Biso   1.000  C 
  C47      1.0000 0.10980  0.24880  0.22147  Biso   1.000  C 
  H17      1.0000 0.14836  0.18431  0.18977  Biso   1.000  H 
  C48      1.0000 0.06610  0.42970  0.20793  Biso   1.000  C 
  C49      1.0000 0.01180  0.52300  0.25569  Biso   1.000  C 
  C50      1.0000 0.00050  0.43800  0.31559  Biso   1.000  C 
  H18      1.0000 0.96444  0.50436  0.34801  Biso   1.000  H 
  H19      1.0000 0.98199  0.64661  0.24711  Biso   1.000  H 
  C51      1.0000 0.07830  0.53450  0.14275  Biso   1.000  C 
  C52      1.0000 0.10730  0.39930  0.08734  Biso   1.000  C 
  F13      1.0000 0.03819  0.25240  0.08076  Biso   1.000  F 
  F14      1.0000 0.20469  0.32090  0.09549  Biso   1.000  F 
  F15      1.0000 0.10497  0.49210  0.03062  Biso   1.000  F 
  C53      1.0000 0.17030  0.68000  0.15426  Biso   1.000  C 
  F16      1.0000 0.19950  0.76720  0.10006  Biso   1.000  F 
  F17      1.0000 0.14465  0.81840  0.19533  Biso   1.000  F 
  F18      1.0000 0.25763  0.59370  0.18030  Biso   1.000  F 
  C54      1.0000 0.97260  0.63260  0.11974  Biso   1.000  C 
  C55      1.0000 0.96680  0.81610  0.09225  Biso   1.000  C 
  C56      1.0000 0.87010  0.89110  0.06924  Biso   1.000  C 
  C57      1.0000 0.77720  0.78520  0.07270  Biso   1.000  C 
  C58      1.0000 0.67400  0.86390  0.04595  Biso   1.000  C 
  O10      1.0000 0.59239  0.76230  0.05186  Biso   1.000  O 
  O11      1.0000 0.67515  0.02710  0.01949  Biso   1.000  O 
  C59      1.0000 0.78230  0.60190  0.10048  Biso   1.000  C 
  H20      1.0000 0.71927  0.52817  0.10343  Biso   1.000  H 
  C60      1.0000 0.87890  0.52730  0.12375  Biso   1.000  C 
  H21      1.0000 0.88138  0.40277  0.14271  Biso   1.000  H 
  H22      1.0000 0.86730  0.01649  0.05089  Biso   1.000  H 
  H23      1.0000 0.02966  0.89018  0.08928  Biso   1.000  H 
  H24      1.0000 0.12642  0.03853  0.28977  Biso   1.000  H 
  O12      1.0000 0.98270  0.25570  0.43432  Biso   1.000  O 
  O13      1.0000 0.17515  0.97290  0.51949  Biso   1.000  O 
  O14      1.0000 0.01730  0.74430  0.56568  Biso   1.000  O 
  O15      1.0000 0.12350  0.58060  0.45981  Biso   1.000  O 
  H25      1.0000 0.08325  0.47960  0.43953  Biso   1.000  H 
  H26      1.0000 0.19697  0.56264  0.47089  Biso   1.000  H 
  O16      1.0000 0.93662  0.00840  0.59982  Biso   1.000  O 
  O17      1.0000 0.87650  0.41940  0.54019  Biso   1.000  O 
  H27      1.0000 0.80303  0.43736  0.52911  Biso   1.000  H 
  H28      1.0000 0.91675  0.52040  0.56047  Biso   1.000  H 
  C61      1.0000 0.28230  0.39810  0.60048  Biso   1.000  C 
  H29      1.0000 0.21927  0.47183  0.60343  Biso   1.000  H 
  C62      1.0000 0.37890  0.47270  0.62375  Biso   1.000  C 
  H30      1.0000 0.38138  0.59723  0.64271  Biso   1.000  H 
  C63      1.0000 0.67030  0.32000  0.65426  Biso   1.000  C 
  F19      1.0000 0.69950  0.23280  0.60006  Biso   1.000  F 
  F20      1.0000 0.64465  0.18160  0.69533  Biso   1.000  F 
  F21      1.0000 0.75763  0.40630  0.68030  Biso   1.000  F 
  C64      1.0000 0.60730  0.60070  0.58734  Biso   1.000  C 
  F22      1.0000 0.53819  0.74760  0.58076  Biso   1.000  F 
  F23      1.0000 0.60497  0.50790  0.53062  Biso   1.000  F 
  F24      1.0000 0.70469  0.67910  0.59549  Biso   1.000  F 
  C65      1.0000 0.60980  0.75120  0.72147  Biso   1.000  C 
  H31      1.0000 0.64836  0.81569  0.68977  Biso   1.000  H 
  C66      1.0000 0.59710  0.83760  0.78118  Biso   1.000  C 
  H32      1.0000 0.62642  0.96147  0.78977  Biso   1.000  H 
  O18      1.0000 0.56338  0.00840  0.90018  Biso   1.000  O 
  O19      1.0000 0.37650  0.58060  0.04019  Biso   1.000  O 
  H33      1.0000 0.30303  0.56264  0.02911  Biso   1.000  H 
  H34      1.0000 0.41675  0.47960  0.06047  Biso   1.000  H 
  O20      1.0000 0.62350  0.41940  0.95981  Biso   1.000  O 
  H35      1.0000 0.58325  0.52040  0.93953  Biso   1.000  H 
  H36      1.0000 0.69697  0.43736  0.97089  Biso   1.000  H 
  C67      1.0000 0.89020  0.75120  0.77853  Biso   1.000  C 
  H37      1.0000 0.85164  0.81569  0.81023  Biso   1.000  H 
  C68      1.0000 0.90290  0.83760  0.71882  Biso   1.000  C 
  H38      1.0000 0.87358  0.96147  0.71023  Biso   1.000  H 
  H39      1.0000 0.01801  0.35339  0.75289  Biso   1.000  H 
  H40      1.0000 0.03556  0.49564  0.65199  Biso   1.000  H 
