data_image0
_cell_length_a       7.801
_cell_length_b       12.817
_cell_length_c       12.872
_cell_angle_alpha    65.5
_cell_angle_beta     78.72
_cell_angle_gamma    73.28

_symmetry_space_group_name_H-M    "P 1"
_symmetry_int_tables_number       1

loop_
  _symmetry_equiv_pos_as_xyz
  'x, y, z'

loop_
  _atom_site_label
  _atom_site_occupancy
  _atom_site_fract_x
  _atom_site_fract_y
  _atom_site_fract_z
  _atom_site_thermal_displace_type
  _atom_site_B_iso_or_equiv
  _atom_site_type_symbol
  Zn1      1.0000 0.17773  0.41603  0.01652  Biso   1.000  Zn
  N1       1.0000 0.39700  0.28124  0.05451  Biso   1.000  N 
  C1       1.0000 0.40370  0.18880  0.03082  Biso   1.000  C 
  H1       1.0000 0.30420  0.18570  0.00340  Biso   1.000  H 
  C2       1.0000 0.55340  0.09746  0.04560  Biso   1.000  C 
  C3       1.0000 0.69960  0.10109  0.08700  Biso   1.000  C 
  C4       1.0000 0.69140  0.19560  0.11320  Biso   1.000  C 
  H2       1.0000 0.78820  0.19960  0.14250  Biso   1.000  H 
  C5       1.0000 0.53920  0.28391  0.09568  Biso   1.000  C 
  H3       1.0000 0.53440  0.34830  0.11310  Biso   1.000  H 
  H4       1.0000 0.80250  0.04040  0.09720  Biso   1.000  H 
  N2       1.0000 0.56910  0.00013  0.01628  Biso   1.000  N 
  N3       1.0000 0.43090  0.99987  0.98372  Biso   1.000  N 
  C6       1.0000 0.44660  0.90254  0.95440  Biso   1.000  C 
  C7       1.0000 0.30040  0.89891  0.91300  Biso   1.000  C 
  H5       1.0000 0.19750  0.95960  0.90280  Biso   1.000  H 
  C8       1.0000 0.30860  0.80440  0.88680  Biso   1.000  C 
  H6       1.0000 0.21180  0.80040  0.85750  Biso   1.000  H 
  C9       1.0000 0.46080  0.71609  0.90432  Biso   1.000  C 
  H7       1.0000 0.46560  0.65170  0.88690  Biso   1.000  H 
  N4       1.0000 0.60300  0.71876  0.94549  Biso   1.000  N 
  C10      1.0000 0.59630  0.81120  0.96918  Biso   1.000  C 
  H8       1.0000 0.69580  0.81430  0.99660  Biso   1.000  H 
  Zn2      1.0000 0.82227  0.58397  0.98348  Biso   1.000  Zn
  O1       1.0000 0.78980  0.48258  0.90814  Biso   1.000  O 
  C11      1.0000 0.90560  0.39794  0.89492  Biso   1.000  C 
  O2       1.0000 0.05950  0.36272  0.92547  Biso   1.000  O 
  C12      1.0000 0.85190  0.33334  0.83771  Biso   1.000  C 
  C13      1.0000 0.67580  0.36076  0.81387  Biso   1.000  C 
  C14      1.0000 0.62050  0.29800  0.76815  Biso   1.000  C 
  H9       1.0000 0.50150  0.31630  0.75260  Biso   1.000  H 
  C15      1.0000 0.74350  0.20800  0.74576  Biso   1.000  C 
  C16      1.0000 0.92020  0.18150  0.76540  Biso   1.000  C 
  H10      1.0000 0.00280  0.12150  0.74740  Biso   1.000  H 
  C17      1.0000 0.97410  0.24470  0.81200  Biso   1.000  C 
  H11      1.0000 0.09370  0.22710  0.82610  Biso   1.000  H 
  S1       1.0000 0.67084  0.12561  0.68956  Biso   1.000  S 
  O3       1.0000 0.47970  0.14340  0.71289  Biso   1.000  O 
  C18      1.0000 0.72000  0.19550  0.54123  Biso   1.000  C 
  C19      1.0000 0.60460  0.29450  0.48210  Biso   1.000  C 
  H12      1.0000 0.49780  0.32300  0.51880  Biso   1.000  H 
  C20      1.0000 0.64550  0.35310  0.36740  Biso   1.000  C 
  H13      1.0000 0.56570  0.42130  0.32610  Biso   1.000  H 
  C21      1.0000 0.80260  0.31185  0.31334  Biso   1.000  C 
  C22      1.0000 0.91570  0.20960  0.37410  Biso   1.000  C 
  C23      1.0000 0.87450  0.15100  0.48890  Biso   1.000  C 
  H14      1.0000 0.95190  0.08150  0.53040  Biso   1.000  H 
  H15      1.0000 0.02120  0.17950  0.33750  Biso   1.000  H 
  C24      1.0000 0.85480  0.38151  0.19151  Biso   1.000  C 
  O4       1.0000 0.00890  0.34712  0.15386  Biso   1.000  O 
  O5       1.0000 0.74170  0.46906  0.13744  Biso   1.000  O 
  O6       1.0000 0.78140  0.00989  0.72612  Biso   1.000  O 
  H16      1.0000 0.59370  0.42260  0.82910  Biso   1.000  H 
  O7       1.0000 0.99110  0.65288  0.84614  Biso   1.000  O 
  C25      1.0000 0.14520  0.61849  0.80849  Biso   1.000  C 
  C26      1.0000 0.19740  0.68815  0.68666  Biso   1.000  C 
  C27      1.0000 0.08430  0.79040  0.62590  Biso   1.000  C 
  C28      1.0000 0.12550  0.84900  0.51110  Biso   1.000  C 
  H17      1.0000 0.04810  0.91850  0.46960  Biso   1.000  H 
  C29      1.0000 0.28000  0.80450  0.45877  Biso   1.000  C 
  C30      1.0000 0.39540  0.70550  0.51790  Biso   1.000  C 
  H18      1.0000 0.50220  0.67700  0.48120  Biso   1.000  H 
  C31      1.0000 0.35450  0.64690  0.63260  Biso   1.000  C 
  H19      1.0000 0.43430  0.57870  0.67390  Biso   1.000  H 
  S2       1.0000 0.32916  0.87439  0.31044  Biso   1.000  S 
  O8       1.0000 0.21860  0.99011  0.27388  Biso   1.000  O 
  C32      1.0000 0.25650  0.79200  0.25424  Biso   1.000  C 
  C33      1.0000 0.07980  0.81850  0.23460  Biso   1.000  C 
  C34      1.0000 0.02590  0.75530  0.18800  Biso   1.000  C 
  C35      1.0000 0.14810  0.66666  0.16229  Biso   1.000  C 
  C36      1.0000 0.09440  0.60206  0.10508  Biso   1.000  C 
  O9       1.0000 0.21020  0.51742  0.09186  Biso   1.000  O 
  O10      1.0000 0.94050  0.63728  0.07453  Biso   1.000  O 
  C37      1.0000 0.32420  0.63924  0.18613  Biso   1.000  C 
  H20      1.0000 0.40630  0.57740  0.17090  Biso   1.000  H 
  C38      1.0000 0.37950  0.70200  0.23185  Biso   1.000  C 
  H21      1.0000 0.49850  0.68370  0.24740  Biso   1.000  H 
  H22      1.0000 0.90630  0.77290  0.17390  Biso   1.000  H 
  H23      1.0000 0.99720  0.87850  0.25260  Biso   1.000  H 
  O11      1.0000 0.52030  0.85660  0.28711  Biso   1.000  O 
  H24      1.0000 0.97880  0.82050  0.66250  Biso   1.000  H 
  O12      1.0000 0.25830  0.53094  0.86256  Biso   1.000  O 
