data_image0
_cell_length_a       6.6061
_cell_length_b       11.5023
_cell_length_c       11.68
_cell_angle_alpha    90
_cell_angle_beta     90
_cell_angle_gamma    90

_symmetry_space_group_name_H-M    "P 1"
_symmetry_int_tables_number       1

loop_
  _symmetry_equiv_pos_as_xyz
  'x, y, z'

loop_
  _atom_site_label
  _atom_site_occupancy
  _atom_site_fract_x
  _atom_site_fract_y
  _atom_site_fract_z
  _atom_site_thermal_displace_type
  _atom_site_B_iso_or_equiv
  _atom_site_type_symbol
  Cl1      1.0000 0.20385  0.21597  0.40811  Biso   1.000  Cl
  Zn1      1.0000 0.01880  0.22755  0.25000  Biso   1.000  Zn
  Cl2      1.0000 0.20385  0.21597  0.09189  Biso   1.000  Cl
  N1       1.0000 0.83860  0.07870  0.25000  Biso   1.000  N 
  C1       1.0000 0.70830  0.06720  0.35260  Biso   1.000  C 
  H1       1.0000 0.61360  0.13160  0.35490  Biso   1.000  H 
  H2       1.0000 0.79180  0.07110  0.42080  Biso   1.000  H 
  C2       1.0000 0.59200  0.95390  0.35240  Biso   1.000  C 
  H3       1.0000 0.44790  0.97020  0.35320  Biso   1.000  H 
  H4       1.0000 0.62450  0.91030  0.42100  Biso   1.000  H 
  N2       1.0000 0.64170  0.88280  0.25000  Biso   1.000  N 
  C3       1.0000 0.59200  0.95390  0.14760  Biso   1.000  C 
  H5       1.0000 0.44790  0.97020  0.14680  Biso   1.000  H 
  H6       1.0000 0.62450  0.91030  0.07900  Biso   1.000  H 
  C4       1.0000 0.70830  0.06720  0.14740  Biso   1.000  C 
  H7       1.0000 0.61360  0.13160  0.14510  Biso   1.000  H 
  H8       1.0000 0.79180  0.07110  0.07920  Biso   1.000  H 
  C5       1.0000 0.86380  0.86430  0.25000  Biso   1.000  C 
  H9       1.0000 0.90160  0.81970  0.31720  Biso   1.000  H 
  C6       1.0000 0.97790  0.97900  0.25000  Biso   1.000  C 
  H10      1.0000 0.06390  0.98290  0.31720  Biso   1.000  H 
  H11      1.0000 0.06390  0.98290  0.18280  Biso   1.000  H 
  H12      1.0000 0.90160  0.81970  0.18280  Biso   1.000  H 
  Zn2      1.0000 0.48120  0.72755  0.25000  Biso   1.000  Zn
  N3       1.0000 0.66140  0.57870  0.25000  Biso   1.000  N 
  C7       1.0000 0.52210  0.47900  0.25000  Biso   1.000  C 
  H13      1.0000 0.43610  0.48290  0.31720  Biso   1.000  H 
  H14      1.0000 0.43610  0.48290  0.18280  Biso   1.000  H 
  C8       1.0000 0.63620  0.36430  0.25000  Biso   1.000  C 
  H15      1.0000 0.59840  0.31970  0.18280  Biso   1.000  H 
  H16      1.0000 0.59840  0.31970  0.31720  Biso   1.000  H 
  N4       1.0000 0.85830  0.38280  0.25000  Biso   1.000  N 
  C9       1.0000 0.90800  0.45390  0.14760  Biso   1.000  C 
  H17      1.0000 0.87550  0.41030  0.07900  Biso   1.000  H 
  H18      1.0000 0.05210  0.47020  0.14680  Biso   1.000  H 
  C10      1.0000 0.79170  0.56720  0.14740  Biso   1.000  C 
  H19      1.0000 0.70820  0.57110  0.07920  Biso   1.000  H 
  H20      1.0000 0.88640  0.63160  0.14510  Biso   1.000  H 
  C11      1.0000 0.90800  0.45390  0.35240  Biso   1.000  C 
  H21      1.0000 0.87550  0.41030  0.42100  Biso   1.000  H 
  H22      1.0000 0.05210  0.47020  0.35320  Biso   1.000  H 
  C12      1.0000 0.79170  0.56720  0.35260  Biso   1.000  C 
  H23      1.0000 0.88640  0.63160  0.35490  Biso   1.000  H 
  H24      1.0000 0.70820  0.57110  0.42080  Biso   1.000  H 
  Cl3      1.0000 0.29615  0.71597  0.40811  Biso   1.000  Cl
  Cl4      1.0000 0.29615  0.71597  0.09189  Biso   1.000  Cl
