data_image0
_cell_length_a       23.9354
_cell_length_b       13.544
_cell_length_c       13.6889
_cell_angle_alpha    90
_cell_angle_beta     105.621
_cell_angle_gamma    90

_symmetry_space_group_name_H-M    "P 1"
_symmetry_int_tables_number       1

loop_
  _symmetry_equiv_pos_as_xyz
  'x, y, z'

loop_
  _atom_site_label
  _atom_site_occupancy
  _atom_site_fract_x
  _atom_site_fract_y
  _atom_site_fract_z
  _atom_site_thermal_displace_type
  _atom_site_B_iso_or_equiv
  _atom_site_type_symbol
  Zn1      1.0000 0.69353  0.20612  0.39964  Biso   1.000  Zn
  N1       1.0000 0.63986  0.14431  0.27035  Biso   1.000  N 
  C1       1.0000 0.60509  0.06874  0.27653  Biso   1.000  C 
  H1       1.0000 0.60740  0.04090  0.34120  Biso   1.000  H 
  C2       1.0000 0.56554  0.02935  0.19160  Biso   1.000  C 
  C3       1.0000 0.56195  0.06822  0.09618  Biso   1.000  C 
  C4       1.0000 0.52096  0.03350  0.00220  Biso   1.000  C 
  C5       1.0000 0.47904  0.96650  0.99780  Biso   1.000  C 
  H2       1.0000 0.47560  0.93950  0.06000  Biso   1.000  H 
  C6       1.0000 0.43805  0.93178  0.90382  Biso   1.000  C 
  C7       1.0000 0.43446  0.97065  0.80840  Biso   1.000  C 
  C8       1.0000 0.39491  0.93126  0.72347  Biso   1.000  C 
  H3       1.0000 0.39260  0.95910  0.65880  Biso   1.000  H 
  N2       1.0000 0.36014  0.85569  0.72965  Biso   1.000  N 
  C9       1.0000 0.36276  0.81865  0.82207  Biso   1.000  C 
  H4       1.0000 0.33770  0.76560  0.82710  Biso   1.000  H 
  C10      1.0000 0.40052  0.85466  0.91040  Biso   1.000  C 
  H5       1.0000 0.40080  0.82720  0.97440  Biso   1.000  H 
  Zn2      1.0000 0.30647  0.79388  0.60036  Biso   1.000  Zn
  O1       1.0000 0.30571  0.86906  0.47609  Biso   1.000  O 
  C11      1.0000 0.26902  0.88108  0.39171  Biso   1.000  C 
  C12      1.0000 0.28084  0.96100  0.32370  Biso   1.000  C 
  H6       1.0000 0.28310  0.93200  0.25930  Biso   1.000  H 
  H7       1.0000 0.31770  0.99330  0.35670  Biso   1.000  H 
  H8       1.0000 0.24950  0.00980  0.31090  Biso   1.000  H 
  O2       1.0000 0.22297  0.83200  0.35990  Biso   1.000  O 
  Zn3      1.0000 0.19353  0.70612  0.39964  Biso   1.000  Zn
  N3       1.0000 0.13986  0.64431  0.27035  Biso   1.000  N 
  C13      1.0000 0.13724  0.68135  0.17793  Biso   1.000  C 
  C14      1.0000 0.09948  0.64534  0.08960  Biso   1.000  C 
  C15      1.0000 0.06195  0.56822  0.09618  Biso   1.000  C 
  C16      1.0000 0.02096  0.53350  0.00220  Biso   1.000  C 
  C17      1.0000 0.97904  0.46650  0.99780  Biso   1.000  C 
  H9       1.0000 0.97560  0.43950  0.06000  Biso   1.000  H 
  C18      1.0000 0.93805  0.43178  0.90382  Biso   1.000  C 
  C19      1.0000 0.93446  0.47065  0.80840  Biso   1.000  C 
  C20      1.0000 0.89491  0.43126  0.72347  Biso   1.000  C 
  H10      1.0000 0.89260  0.45910  0.65880  Biso   1.000  H 
  N4       1.0000 0.86014  0.35569  0.72965  Biso   1.000  N 
  C21      1.0000 0.86276  0.31865  0.82207  Biso   1.000  C 
  H11      1.0000 0.83770  0.26560  0.82710  Biso   1.000  H 
  C22      1.0000 0.90052  0.35466  0.91040  Biso   1.000  C 
  H12      1.0000 0.90080  0.32720  0.97440  Biso   1.000  H 
  Zn4      1.0000 0.80647  0.29388  0.60036  Biso   1.000  Zn
  N5       1.0000 0.73123  0.37462  0.61879  Biso   1.000  N 
  C23      1.0000 0.69831  0.33837  0.67683  Biso   1.000  C 
  H13      1.0000 0.71070  0.27980  0.71460  Biso   1.000  H 
  C24      1.0000 0.64737  0.38262  0.68382  Biso   1.000  C 
  H14      1.0000 0.62570  0.35470  0.72580  Biso   1.000  H 
  C25      1.0000 0.62809  0.46869  0.62856  Biso   1.000  C 
  C26      1.0000 0.57173  0.51029  0.63061  Biso   1.000  C 
  H15      1.0000 0.55160  0.47910  0.67320  Biso   1.000  H 
  C27      1.0000 0.54650  0.58914  0.57689  Biso   1.000  C 
  H16      1.0000 0.56670  0.62100  0.53470  Biso   1.000  H 
  C28      1.0000 0.48992  0.62931  0.57897  Biso   1.000  C 
  C29      1.0000 0.47047  0.71595  0.52572  Biso   1.000  C 
  H17      1.0000 0.49340  0.74730  0.48780  Biso   1.000  H 
  C30      1.0000 0.41760  0.75621  0.52824  Biso   1.000  C 
  H18      1.0000 0.40530  0.81560  0.49180  Biso   1.000  H 
  N6       1.0000 0.38283  0.71524  0.57975  Biso   1.000  N 
  C31      1.0000 0.40072  0.63062  0.62888  Biso   1.000  C 
  H19      1.0000 0.37640  0.60010  0.66470  Biso   1.000  H 
  C32      1.0000 0.45297  0.58512  0.63016  Biso   1.000  C 
  H20      1.0000 0.46350  0.52460  0.66540  Biso   1.000  H 
  C33      1.0000 0.66374  0.50905  0.57303  Biso   1.000  C 
  H21      1.0000 0.65340  0.56930  0.53720  Biso   1.000  H 
  C34      1.0000 0.71448  0.46041  0.57065  Biso   1.000  C 
  H22      1.0000 0.73840  0.48920  0.53320  Biso   1.000  H 
  O3       1.0000 0.77703  0.16800  0.64010  Biso   1.000  O 
  C35      1.0000 0.73098  0.11892  0.60829  Biso   1.000  C 
  C36      1.0000 0.71916  0.03900  0.67630  Biso   1.000  C 
  H23      1.0000 0.68230  0.00670  0.64330  Biso   1.000  H 
  H24      1.0000 0.71690  0.06800  0.74070  Biso   1.000  H 
  H25      1.0000 0.75050  0.99020  0.68910  Biso   1.000  H 
  O4       1.0000 0.69429  0.13094  0.52391  Biso   1.000  O 
  O5       1.0000 0.80571  0.36906  0.47609  Biso   1.000  O 
  C37      1.0000 0.76902  0.38108  0.39171  Biso   1.000  C 
  C38      1.0000 0.78084  0.46100  0.32370  Biso   1.000  C 
  H26      1.0000 0.78310  0.43200  0.25930  Biso   1.000  H 
  H27      1.0000 0.74950  0.50980  0.31090  Biso   1.000  H 
  H28      1.0000 0.81770  0.49330  0.35670  Biso   1.000  H 
  O6       1.0000 0.72297  0.33200  0.35990  Biso   1.000  O 
  N7       1.0000 0.88283  0.21524  0.57975  Biso   1.000  N 
  C39      1.0000 0.91760  0.25621  0.52824  Biso   1.000  C 
  H29      1.0000 0.90530  0.31560  0.49180  Biso   1.000  H 
  C40      1.0000 0.97047  0.21595  0.52572  Biso   1.000  C 
  H30      1.0000 0.99340  0.24730  0.48780  Biso   1.000  H 
  C41      1.0000 0.98992  0.12931  0.57897  Biso   1.000  C 
  C42      1.0000 0.04650  0.08914  0.57689  Biso   1.000  C 
  H31      1.0000 0.06670  0.12100  0.53470  Biso   1.000  H 
  C43      1.0000 0.07173  0.01029  0.63061  Biso   1.000  C 
  C44      1.0000 0.12809  0.96869  0.62856  Biso   1.000  C 
  C45      1.0000 0.14737  0.88262  0.68382  Biso   1.000  C 
  C46      1.0000 0.19831  0.83837  0.67683  Biso   1.000  C 
  H32      1.0000 0.21070  0.77980  0.71460  Biso   1.000  H 
  N8       1.0000 0.23123  0.87462  0.61879  Biso   1.000  N 
  C47      1.0000 0.21448  0.96041  0.57065  Biso   1.000  C 
  H33      1.0000 0.23840  0.98920  0.53320  Biso   1.000  H 
  C48      1.0000 0.16374  0.00905  0.57303  Biso   1.000  C 
  H34      1.0000 0.15340  0.06930  0.53720  Biso   1.000  H 
  H35      1.0000 0.12570  0.85470  0.72580  Biso   1.000  H 
  H36      1.0000 0.05160  0.97910  0.67320  Biso   1.000  H 
  C49      1.0000 0.95297  0.08512  0.63016  Biso   1.000  C 
  H37      1.0000 0.96350  0.02460  0.66540  Biso   1.000  H 
  C50      1.0000 0.90072  0.13062  0.62888  Biso   1.000  C 
  H38      1.0000 0.87640  0.10010  0.66470  Biso   1.000  H 
  H39      1.0000 0.95890  0.52390  0.80110  Biso   1.000  H 
  H40      1.0000 0.02440  0.56050  0.94000  Biso   1.000  H 
  C51      1.0000 0.06554  0.52935  0.19160  Biso   1.000  C 
  H41      1.0000 0.04110  0.47610  0.19890  Biso   1.000  H 
  C52      1.0000 0.10509  0.56874  0.27653  Biso   1.000  C 
  H42      1.0000 0.10740  0.54090  0.34120  Biso   1.000  H 
  H43      1.0000 0.09920  0.67280  0.02560  Biso   1.000  H 
  H44      1.0000 0.16230  0.73440  0.17290  Biso   1.000  H 
  N9       1.0000 0.11717  0.78476  0.42025  Biso   1.000  N 
  C53      1.0000 0.09928  0.86938  0.37112  Biso   1.000  C 
  H45      1.0000 0.12360  0.89990  0.33530  Biso   1.000  H 
  C54      1.0000 0.04703  0.91488  0.36984  Biso   1.000  C 
  H46      1.0000 0.03650  0.97540  0.33460  Biso   1.000  H 
  C55      1.0000 0.01008  0.87069  0.42103  Biso   1.000  C 
  C56      1.0000 0.02953  0.78405  0.47428  Biso   1.000  C 
  H47      1.0000 0.00660  0.75270  0.51220  Biso   1.000  H 
  C57      1.0000 0.08240  0.74379  0.47176  Biso   1.000  C 
  H48      1.0000 0.09470  0.68440  0.50820  Biso   1.000  H 
  C58      1.0000 0.95350  0.91086  0.42311  Biso   1.000  C 
  H49      1.0000 0.93330  0.87900  0.46530  Biso   1.000  H 
  C59      1.0000 0.92827  0.98971  0.36939  Biso   1.000  C 
  C60      1.0000 0.87191  0.03131  0.37144  Biso   1.000  C 
  C61      1.0000 0.85263  0.11738  0.31618  Biso   1.000  C 
  C62      1.0000 0.80169  0.16163  0.32317  Biso   1.000  C 
  H50      1.0000 0.78930  0.22020  0.28540  Biso   1.000  H 
  N10      1.0000 0.76877  0.12538  0.38121  Biso   1.000  N 
  C63      1.0000 0.78552  0.03959  0.42935  Biso   1.000  C 
  H51      1.0000 0.76160  0.01080  0.46680  Biso   1.000  H 
  C64      1.0000 0.83626  0.99095  0.42697  Biso   1.000  C 
  H52      1.0000 0.84660  0.93070  0.46280  Biso   1.000  H 
  H53      1.0000 0.87430  0.14530  0.27420  Biso   1.000  H 
  H54      1.0000 0.94840  0.02090  0.32680  Biso   1.000  H 
  N11      1.0000 0.26877  0.62538  0.38121  Biso   1.000  N 
  C65      1.0000 0.28552  0.53959  0.42935  Biso   1.000  C 
  C66      1.0000 0.33626  0.49095  0.42697  Biso   1.000  C 
  H55      1.0000 0.34660  0.43070  0.46280  Biso   1.000  H 
  C67      1.0000 0.37191  0.53131  0.37144  Biso   1.000  C 
  C68      1.0000 0.42827  0.48971  0.36939  Biso   1.000  C 
  H56      1.0000 0.44840  0.52090  0.32680  Biso   1.000  H 
  C69      1.0000 0.45350  0.41086  0.42311  Biso   1.000  C 
  H57      1.0000 0.43330  0.37900  0.46530  Biso   1.000  H 
  C70      1.0000 0.51008  0.37069  0.42103  Biso   1.000  C 
  C71      1.0000 0.52953  0.28405  0.47428  Biso   1.000  C 
  C72      1.0000 0.58240  0.24379  0.47176  Biso   1.000  C 
  H58      1.0000 0.59470  0.18440  0.50820  Biso   1.000  H 
  N12      1.0000 0.61717  0.28476  0.42025  Biso   1.000  N 
  C73      1.0000 0.59928  0.36938  0.37112  Biso   1.000  C 
  C74      1.0000 0.54703  0.41488  0.36984  Biso   1.000  C 
  H59      1.0000 0.53650  0.47540  0.33460  Biso   1.000  H 
  H60      1.0000 0.62360  0.39990  0.33530  Biso   1.000  H 
  H61      1.0000 0.50660  0.25270  0.51220  Biso   1.000  H 
  C75      1.0000 0.35263  0.61738  0.31618  Biso   1.000  C 
  C76      1.0000 0.30169  0.66163  0.32317  Biso   1.000  C 
  H62      1.0000 0.28930  0.72020  0.28540  Biso   1.000  H 
  H63      1.0000 0.37430  0.64530  0.27420  Biso   1.000  H 
  H64      1.0000 0.26160  0.51080  0.46680  Biso   1.000  H 
  O7       1.0000 0.19429  0.63094  0.52391  Biso   1.000  O 
  C77      1.0000 0.23098  0.61892  0.60829  Biso   1.000  C 
  C78      1.0000 0.21916  0.53900  0.67630  Biso   1.000  C 
  H65      1.0000 0.18230  0.50670  0.64330  Biso   1.000  H 
  H66      1.0000 0.25050  0.49020  0.68910  Biso   1.000  H 
  H67      1.0000 0.21690  0.56800  0.74070  Biso   1.000  H 
  O8       1.0000 0.27703  0.66800  0.64010  Biso   1.000  O 
  H68      1.0000 0.45890  0.02390  0.80110  Biso   1.000  H 
  H69      1.0000 0.52440  0.06050  0.94000  Biso   1.000  H 
  C79      1.0000 0.59948  0.14534  0.08960  Biso   1.000  C 
  H70      1.0000 0.59920  0.17280  0.02560  Biso   1.000  H 
  C80      1.0000 0.63724  0.18135  0.17793  Biso   1.000  C 
  H71      1.0000 0.66230  0.23440  0.17290  Biso   1.000  H 
  H72      1.0000 0.54110  0.97610  0.19890  Biso   1.000  H 
