data_image0
_cell_length_a       10.6273
_cell_length_b       8.6343
_cell_length_c       16.059
_cell_angle_alpha    90
_cell_angle_beta     100.881
_cell_angle_gamma    90

_symmetry_space_group_name_H-M    "P 1"
_symmetry_int_tables_number       1

loop_
  _symmetry_equiv_pos_as_xyz
  'x, y, z'

loop_
  _atom_site_label
  _atom_site_occupancy
  _atom_site_fract_x
  _atom_site_fract_y
  _atom_site_fract_z
  _atom_site_thermal_displace_type
  _atom_site_B_iso_or_equiv
  _atom_site_type_symbol
  Co1      1.0000 0.00000  0.50000  0.50000  Biso   1.000  Co
  N1       1.0000 0.79942  0.55007  0.44884  Biso   1.000  N 
  C1       1.0000 0.69257  0.50824  0.47929  Biso   1.000  C 
  C2       1.0000 0.75119  0.63140  0.38047  Biso   1.000  C 
  H1       1.0000 0.80040  0.67890  0.34390  Biso   1.000  H 
  N2       1.0000 0.62414  0.63730  0.37017  Biso   1.000  N 
  C3       1.0000 0.53217  0.71950  0.30632  Biso   1.000  C 
  H2       1.0000 0.45890  0.65030  0.28490  Biso   1.000  H 
  H3       1.0000 0.57350  0.74660  0.25790  Biso   1.000  H 
  C4       1.0000 0.48307  0.86574  0.34120  Biso   1.000  C 
  C5       1.0000 0.35246  0.89061  0.33425  Biso   1.000  C 
  H4       1.0000 0.29340  0.81510  0.30740  Biso   1.000  H 
  C6       1.0000 0.30706  0.02526  0.36627  Biso   1.000  C 
  C7       1.0000 0.16537  0.04580  0.36398  Biso   1.000  C 
  H5       1.0000 0.14820  0.15350  0.37970  Biso   1.000  H 
  H6       1.0000 0.11750  0.02660  0.30580  Biso   1.000  H 
  N3       1.0000 0.12156  0.93786  0.42302  Biso   1.000  N 
  C8       1.0000 0.06775  0.79973  0.40669  Biso   1.000  C 
  H7       1.0000 0.04140  0.75680  0.35170  Biso   1.000  H 
  N4       1.0000 0.05618  0.73046  0.47863  Biso   1.000  N 
  C9       1.0000 0.10646  0.83538  0.53884  Biso   1.000  C 
  H8       1.0000 0.11100  0.81820  0.59780  Biso   1.000  H 
  N5       1.0000 0.14842  0.96311  0.50829  Biso   1.000  N 
  C10      1.0000 0.39362  0.13587  0.40439  Biso   1.000  C 
  C11      1.0000 0.52412  0.11120  0.41130  Biso   1.000  C 
  H9       1.0000 0.58320  0.18710  0.43770  Biso   1.000  H 
  C12      1.0000 0.56865  0.97720  0.38013  Biso   1.000  C 
  H10      1.0000 0.65820  0.96110  0.38530  Biso   1.000  H 
  H11      1.0000 0.36360  0.22860  0.42580  Biso   1.000  H 
  N6       1.0000 0.58438  0.55898  0.43402  Biso   1.000  N 
  H12      1.0000 0.69620  0.44750  0.52900  Biso   1.000  H 
  N7       1.0000 0.94382  0.26954  0.52137  Biso   1.000  N 
  C13      1.0000 0.89354  0.16462  0.46116  Biso   1.000  C 
  H13      1.0000 0.88900  0.18180  0.40220  Biso   1.000  H 
  C14      1.0000 0.93225  0.20027  0.59331  Biso   1.000  C 
  H14      1.0000 0.95860  0.24320  0.64830  Biso   1.000  H 
  N8       1.0000 0.87844  0.06214  0.57698  Biso   1.000  N 
  N9       1.0000 0.85158  0.03689  0.49171  Biso   1.000  N 
  C15      1.0000 0.83463  0.95420  0.63602  Biso   1.000  C 
  H15      1.0000 0.85180  0.84650  0.62030  Biso   1.000  H 
  H16      1.0000 0.88250  0.97340  0.69420  Biso   1.000  H 
  C16      1.0000 0.69294  0.97474  0.63373  Biso   1.000  C 
  C17      1.0000 0.60638  0.86413  0.59561  Biso   1.000  C 
  H17      1.0000 0.63640  0.77140  0.57420  Biso   1.000  H 
  C18      1.0000 0.47588  0.88880  0.58870  Biso   1.000  C 
  H18      1.0000 0.41680  0.81290  0.56230  Biso   1.000  H 
  C19      1.0000 0.43135  0.02280  0.61987  Biso   1.000  C 
  H19      1.0000 0.34180  0.03890  0.61470  Biso   1.000  H 
  C20      1.0000 0.51693  0.13426  0.65880  Biso   1.000  C 
  C21      1.0000 0.64754  0.10939  0.66575  Biso   1.000  C 
  H20      1.0000 0.70660  0.18490  0.69260  Biso   1.000  H 
  C22      1.0000 0.46783  0.28050  0.69368  Biso   1.000  C 
  H21      1.0000 0.42650  0.25340  0.74210  Biso   1.000  H 
  H22      1.0000 0.54110  0.34970  0.71510  Biso   1.000  H 
  N10      1.0000 0.37586  0.36270  0.62983  Biso   1.000  N 
  C23      1.0000 0.24881  0.36860  0.61953  Biso   1.000  C 
  H23      1.0000 0.19960  0.32110  0.65610  Biso   1.000  H 
  N11      1.0000 0.20058  0.44993  0.55116  Biso   1.000  N 
  C24      1.0000 0.30743  0.49176  0.52071  Biso   1.000  C 
  H24      1.0000 0.30380  0.55250  0.47100  Biso   1.000  H 
  N12      1.0000 0.41562  0.44102  0.56598  Biso   1.000  N 
  N13      1.0000 0.96815  0.55538  0.62314  Biso   1.000  N 
  C25      1.0000 0.90430  0.54734  0.67451  Biso   1.000  C 
  S1       1.0000 0.81463  0.53176  0.74621  Biso   1.000  S 
  N14      1.0000 0.03185  0.44462  0.37686  Biso   1.000  N 
  C26      1.0000 0.09570  0.45266  0.32549  Biso   1.000  C 
  S2       1.0000 0.18537  0.46824  0.25379  Biso   1.000  S 
