data_image0
_cell_length_a       27.7799
_cell_length_b       8.6631
_cell_length_c       14.2422
_cell_angle_alpha    90
_cell_angle_beta     114.702
_cell_angle_gamma    90

_symmetry_space_group_name_H-M    "P 1"
_symmetry_int_tables_number       1

loop_
  _symmetry_equiv_pos_as_xyz
  'x, y, z'

loop_
  _atom_site_label
  _atom_site_occupancy
  _atom_site_fract_x
  _atom_site_fract_y
  _atom_site_fract_z
  _atom_site_thermal_displace_type
  _atom_site_B_iso_or_equiv
  _atom_site_type_symbol
  Nd1      1.0000 0.72642  0.84191  0.99498  Biso   1.000  Nd
  O1       1.0000 0.65599  0.75120  0.04460  Biso   1.000  O 
  C1       1.0000 0.64430  0.61270  0.05400  Biso   1.000  C 
  H1       1.0000 0.65720  0.53070  0.02920  Biso   1.000  H 
  N1       1.0000 0.61090  0.58970  0.10360  Biso   1.000  N 
  C2       1.0000 0.59830  0.43450  0.12180  Biso   1.000  C 
  H2       1.0000 0.56160  0.42900  0.10920  Biso   1.000  H 
  H3       1.0000 0.60490  0.36490  0.07600  Biso   1.000  H 
  H4       1.0000 0.61990  0.40610  0.19210  Biso   1.000  H 
  C3       1.0000 0.60070  0.68100  0.18300  Biso   1.000  C 
  H5       1.0000 0.57980  0.62070  0.20850  Biso   1.000  H 
  H6       1.0000 0.63380  0.70720  0.23900  Biso   1.000  H 
  H7       1.0000 0.58190  0.77400  0.15190  Biso   1.000  H 
  Nd2      1.0000 0.77358  0.34191  0.00502  Biso   1.000  Nd
  O2       1.0000 0.68468  0.38950  0.87790  Biso   1.000  O 
  C4       1.0000 0.66265  0.51570  0.83880  Biso   1.000  C 
  C5       1.0000 0.61450  0.51190  0.73850  Biso   1.000  C 
  C6       1.0000 0.58960  0.37590  0.69660  Biso   1.000  C 
  H8       1.0000 0.60270  0.28340  0.73090  Biso   1.000  H 
  C7       1.0000 0.54470  0.37500  0.60300  Biso   1.000  C 
  H9       1.0000 0.52870  0.28140  0.57530  Biso   1.000  H 
  C8       1.0000 0.52330  0.51040  0.55050  Biso   1.000  C 
  C9       1.0000 0.55020  0.64630  0.59230  Biso   1.000  C 
  H10      1.0000 0.53790  0.73870  0.55720  Biso   1.000  H 
  C10      1.0000 0.59520  0.64770  0.68600  Biso   1.000  C 
  H11      1.0000 0.61220  0.74040  0.71290  Biso   1.000  H 
  C11      1.0000 0.47670  0.51040  0.44950  Biso   1.000  C 
  C12      1.0000 0.45530  0.37500  0.39700  Biso   1.000  C 
  H12      1.0000 0.47130  0.28140  0.42470  Biso   1.000  H 
  C13      1.0000 0.41040  0.37590  0.30340  Biso   1.000  C 
  H13      1.0000 0.39730  0.28340  0.26910  Biso   1.000  H 
  C14      1.0000 0.38550  0.51190  0.26150  Biso   1.000  C 
  C15      1.0000 0.40480  0.64770  0.31400  Biso   1.000  C 
  H14      1.0000 0.38780  0.74040  0.28710  Biso   1.000  H 
  C16      1.0000 0.44980  0.64630  0.40770  Biso   1.000  C 
  H15      1.0000 0.46210  0.73870  0.44280  Biso   1.000  H 
  C17      1.0000 0.33735  0.51570  0.16120  Biso   1.000  C 
  O3       1.0000 0.31532  0.38950  0.12210  Biso   1.000  O 
  Nd3      1.0000 0.22642  0.34191  0.99498  Biso   1.000  Nd
  O4       1.0000 0.15599  0.25120  0.04460  Biso   1.000  O 
  C18      1.0000 0.14430  0.11270  0.05400  Biso   1.000  C 
  H16      1.0000 0.15720  0.03070  0.02920  Biso   1.000  H 
  N2       1.0000 0.11090  0.08970  0.10360  Biso   1.000  N 
  C19      1.0000 0.10070  0.18100  0.18300  Biso   1.000  C 
  H17      1.0000 0.08190  0.27400  0.15190  Biso   1.000  H 
  H18      1.0000 0.07980  0.12070  0.20850  Biso   1.000  H 
  H19      1.0000 0.13380  0.20720  0.23900  Biso   1.000  H 
  C20      1.0000 0.09830  0.93450  0.12180  Biso   1.000  C 
  H20      1.0000 0.06160  0.92900  0.10920  Biso   1.000  H 
  H21      1.0000 0.11990  0.90610  0.19210  Biso   1.000  H 
  H22      1.0000 0.10490  0.86490  0.07600  Biso   1.000  H 
  O5       1.0000 0.17893  0.14580  0.87760  Biso   1.000  O 
  C21      1.0000 0.16265  0.01570  0.83880  Biso   1.000  C 
  C22      1.0000 0.11450  0.01190  0.73850  Biso   1.000  C 
  C23      1.0000 0.09520  0.14770  0.68600  Biso   1.000  C 
  H23      1.0000 0.11220  0.24040  0.71290  Biso   1.000  H 
  C24      1.0000 0.05020  0.14630  0.59230  Biso   1.000  C 
  C25      1.0000 0.02330  0.01040  0.55050  Biso   1.000  C 
  C26      1.0000 0.97670  0.01040  0.44950  Biso   1.000  C 
  C27      1.0000 0.94980  0.14630  0.40770  Biso   1.000  C 
  H24      1.0000 0.96210  0.23870  0.44280  Biso   1.000  H 
  C28      1.0000 0.90480  0.14770  0.31400  Biso   1.000  C 
  H25      1.0000 0.88780  0.24040  0.28710  Biso   1.000  H 
  C29      1.0000 0.88550  0.01190  0.26150  Biso   1.000  C 
  C30      1.0000 0.83735  0.01570  0.16120  Biso   1.000  C 
  O6       1.0000 0.82107  0.14580  0.12240  Biso   1.000  O 
  O7       1.0000 0.81532  0.88950  0.12210  Biso   1.000  O 
  C31      1.0000 0.91040  0.87590  0.30340  Biso   1.000  C 
  H26      1.0000 0.89730  0.78340  0.26910  Biso   1.000  H 
  C32      1.0000 0.95530  0.87500  0.39700  Biso   1.000  C 
  H27      1.0000 0.97130  0.78140  0.42470  Biso   1.000  H 
  C33      1.0000 0.04470  0.87500  0.60300  Biso   1.000  C 
  H28      1.0000 0.02870  0.78140  0.57530  Biso   1.000  H 
  C34      1.0000 0.08960  0.87590  0.69660  Biso   1.000  C 
  H29      1.0000 0.10270  0.78340  0.73090  Biso   1.000  H 
  H30      1.0000 0.03790  0.23870  0.55720  Biso   1.000  H 
  Nd4      1.0000 0.27358  0.84191  0.00502  Biso   1.000  Nd
  O8       1.0000 0.18468  0.88950  0.87790  Biso   1.000  O 
  O9       1.0000 0.22475  0.78910  0.10810  Biso   1.000  O 
  C35      1.0000 0.21394  0.66360  0.13850  Biso   1.000  C 
  O10      1.0000 0.20895  0.53660  0.09320  Biso   1.000  O 
  C36      1.0000 0.20682  0.66300  0.23740  Biso   1.000  C 
  C37      1.0000 0.18042  0.54190  0.25930  Biso   1.000  C 
  H31      1.0000 0.16640  0.46190  0.21210  Biso   1.000  H 
  C38      1.0000 0.17510  0.54060  0.35220  Biso   1.000  C 
  H32      1.0000 0.15670  0.46020  0.36550  Biso   1.000  H 
  C39      1.0000 0.19663  0.65650  0.42580  Biso   1.000  C 
  C40      1.0000 0.19340  0.64680  0.52740  Biso   1.000  C 
  C41      1.0000 0.15180  0.57020  0.53790  Biso   1.000  C 
  H33      1.0000 0.12350  0.53240  0.47980  Biso   1.000  H 
  C42      1.0000 0.15249  0.55040  0.63550  Biso   1.000  C 
  H34      1.0000 0.12480  0.49810  0.64200  Biso   1.000  H 
  C43      1.0000 0.19408  0.60750  0.72360  Biso   1.000  C 
  C44      1.0000 0.19788  0.56310  0.82820  Biso   1.000  C 
  O11      1.0000 0.16355  0.47740  0.83530  Biso   1.000  O 
  O12      1.0000 0.23954  0.60230  0.90910  Biso   1.000  O 
  C45      1.0000 0.23380  0.69110  0.71240  Biso   1.000  C 
  H35      1.0000 0.26080  0.73450  0.77020  Biso   1.000  H 
  C46      1.0000 0.23370  0.71070  0.61590  Biso   1.000  C 
  H36      1.0000 0.26070  0.76700  0.60960  Biso   1.000  H 
  C47      1.0000 0.22230  0.77880  0.40180  Biso   1.000  C 
  H37      1.0000 0.23660  0.85850  0.44910  Biso   1.000  H 
  C48      1.0000 0.22700  0.78340  0.30820  Biso   1.000  C 
  H38      1.0000 0.24350  0.86680  0.29280  Biso   1.000  H 
  O13      1.0000 0.32107  0.64580  0.12240  Biso   1.000  O 
  O14      1.0000 0.33645  0.97740  0.16470  Biso   1.000  O 
  C49      1.0000 0.30212  0.06310  0.17180  Biso   1.000  C 
  O15      1.0000 0.26046  0.10230  0.09090  Biso   1.000  O 
  C50      1.0000 0.30592  0.10750  0.27640  Biso   1.000  C 
  C51      1.0000 0.34751  0.05040  0.36450  Biso   1.000  C 
  C52      1.0000 0.34820  0.07020  0.46210  Biso   1.000  C 
  H39      1.0000 0.37650  0.03240  0.52020  Biso   1.000  H 
  C53      1.0000 0.30660  0.14680  0.47260  Biso   1.000  C 
  C54      1.0000 0.26630  0.21070  0.38410  Biso   1.000  C 
  H40      1.0000 0.23930  0.26700  0.39040  Biso   1.000  H 
  C55      1.0000 0.26620  0.19110  0.28760  Biso   1.000  C 
  H41      1.0000 0.23920  0.23450  0.22980  Biso   1.000  H 
  C56      1.0000 0.30337  0.15650  0.57420  Biso   1.000  C 
  C57      1.0000 0.32490  0.04060  0.64780  Biso   1.000  C 
  C58      1.0000 0.31958  0.04190  0.74070  Biso   1.000  C 
  C59      1.0000 0.29318  0.16300  0.76260  Biso   1.000  C 
  C60      1.0000 0.27300  0.28340  0.69180  Biso   1.000  C 
  H42      1.0000 0.25650  0.36680  0.70720  Biso   1.000  H 
  C61      1.0000 0.27770  0.27880  0.59820  Biso   1.000  C 
  H43      1.0000 0.26340  0.35850  0.55090  Biso   1.000  H 
  C62      1.0000 0.28606  0.16360  0.86150  Biso   1.000  C 
  O16      1.0000 0.29105  0.03660  0.90680  Biso   1.000  O 
  O17      1.0000 0.27525  0.28910  0.89190  Biso   1.000  O 
  H44      1.0000 0.33360  0.96190  0.78790  Biso   1.000  H 
  H45      1.0000 0.34330  0.96020  0.63450  Biso   1.000  H 
  H46      1.0000 0.37520  0.99810  0.35800  Biso   1.000  H 
  O18      1.0000 0.34401  0.75120  0.95540  Biso   1.000  O 
  C63      1.0000 0.35570  0.61270  0.94600  Biso   1.000  C 
  H47      1.0000 0.34280  0.53070  0.97080  Biso   1.000  H 
  N3       1.0000 0.38910  0.58970  0.89640  Biso   1.000  N 
  C64      1.0000 0.40170  0.43450  0.87820  Biso   1.000  C 
  H48      1.0000 0.43840  0.42900  0.89080  Biso   1.000  H 
  H49      1.0000 0.39510  0.36490  0.92400  Biso   1.000  H 
  H50      1.0000 0.38010  0.40610  0.80790  Biso   1.000  H 
  C65      1.0000 0.39930  0.68100  0.81700  Biso   1.000  C 
  H51      1.0000 0.42020  0.62070  0.79150  Biso   1.000  H 
  H52      1.0000 0.36620  0.70720  0.76100  Biso   1.000  H 
  H53      1.0000 0.41810  0.77400  0.84810  Biso   1.000  H 
  O19      1.0000 0.67893  0.64580  0.87760  Biso   1.000  O 
  O20      1.0000 0.72475  0.28910  0.10810  Biso   1.000  O 
  C66      1.0000 0.71394  0.16360  0.13850  Biso   1.000  C 
  C67      1.0000 0.70682  0.16300  0.23740  Biso   1.000  C 
  C68      1.0000 0.68042  0.04190  0.25930  Biso   1.000  C 
  C69      1.0000 0.67510  0.04060  0.35220  Biso   1.000  C 
  C70      1.0000 0.69663  0.15650  0.42580  Biso   1.000  C 
  C71      1.0000 0.69340  0.14680  0.52740  Biso   1.000  C 
  C72      1.0000 0.65180  0.07020  0.53790  Biso   1.000  C 
  H54      1.0000 0.62350  0.03240  0.47980  Biso   1.000  H 
  C73      1.0000 0.65249  0.05040  0.63550  Biso   1.000  C 
  C74      1.0000 0.69408  0.10750  0.72360  Biso   1.000  C 
  C75      1.0000 0.69788  0.06310  0.82820  Biso   1.000  C 
  O21      1.0000 0.73954  0.10230  0.90910  Biso   1.000  O 
  O22      1.0000 0.66355  0.97740  0.83530  Biso   1.000  O 
  C76      1.0000 0.73380  0.19110  0.71240  Biso   1.000  C 
  H55      1.0000 0.76080  0.23450  0.77020  Biso   1.000  H 
  C77      1.0000 0.73370  0.21070  0.61590  Biso   1.000  C 
  H56      1.0000 0.76070  0.26700  0.60960  Biso   1.000  H 
  H57      1.0000 0.62480  0.99810  0.64200  Biso   1.000  H 
  C78      1.0000 0.72230  0.27880  0.40180  Biso   1.000  C 
  H58      1.0000 0.73660  0.35850  0.44910  Biso   1.000  H 
  C79      1.0000 0.72700  0.28340  0.30820  Biso   1.000  C 
  H59      1.0000 0.74350  0.36680  0.29280  Biso   1.000  H 
  H60      1.0000 0.65670  0.96020  0.36550  Biso   1.000  H 
  H61      1.0000 0.66640  0.96190  0.21210  Biso   1.000  H 
  O23      1.0000 0.70895  0.03660  0.09320  Biso   1.000  O 
  O24      1.0000 0.83645  0.47740  0.16470  Biso   1.000  O 
  C80      1.0000 0.80212  0.56310  0.17180  Biso   1.000  C 
  O25      1.0000 0.76046  0.60230  0.09090  Biso   1.000  O 
  C81      1.0000 0.80592  0.60750  0.27640  Biso   1.000  C 
  C82      1.0000 0.84751  0.55040  0.36450  Biso   1.000  C 
  H62      1.0000 0.87520  0.49810  0.35800  Biso   1.000  H 
  C83      1.0000 0.84820  0.57020  0.46210  Biso   1.000  C 
  H63      1.0000 0.87650  0.53240  0.52020  Biso   1.000  H 
  C84      1.0000 0.80660  0.64680  0.47260  Biso   1.000  C 
  C85      1.0000 0.76630  0.71070  0.38410  Biso   1.000  C 
  H64      1.0000 0.73930  0.76700  0.39040  Biso   1.000  H 
  C86      1.0000 0.76620  0.69110  0.28760  Biso   1.000  C 
  H65      1.0000 0.73920  0.73450  0.22980  Biso   1.000  H 
  C87      1.0000 0.80337  0.65650  0.57420  Biso   1.000  C 
  C88      1.0000 0.82490  0.54060  0.64780  Biso   1.000  C 
  H66      1.0000 0.84330  0.46020  0.63450  Biso   1.000  H 
  C89      1.0000 0.81958  0.54190  0.74070  Biso   1.000  C 
  H67      1.0000 0.83360  0.46190  0.78790  Biso   1.000  H 
  C90      1.0000 0.79318  0.66300  0.76260  Biso   1.000  C 
  C91      1.0000 0.77300  0.78340  0.69180  Biso   1.000  C 
  C92      1.0000 0.77770  0.77880  0.59820  Biso   1.000  C 
  H68      1.0000 0.76340  0.85850  0.55090  Biso   1.000  H 
  H69      1.0000 0.75650  0.86680  0.70720  Biso   1.000  H 
  C93      1.0000 0.78606  0.66360  0.86150  Biso   1.000  C 
  O26      1.0000 0.77525  0.78910  0.89190  Biso   1.000  O 
  O27      1.0000 0.79105  0.53660  0.90680  Biso   1.000  O 
  O28      1.0000 0.84401  0.25120  0.95540  Biso   1.000  O 
  C94      1.0000 0.85570  0.11270  0.94600  Biso   1.000  C 
  H70      1.0000 0.84280  0.03070  0.97080  Biso   1.000  H 
  N4       1.0000 0.88910  0.08970  0.89640  Biso   1.000  N 
  C95      1.0000 0.90170  0.93450  0.87820  Biso   1.000  C 
  H71      1.0000 0.88010  0.90610  0.80790  Biso   1.000  H 
  H72      1.0000 0.93840  0.92900  0.89080  Biso   1.000  H 
  H73      1.0000 0.89510  0.86490  0.92400  Biso   1.000  H 
  C96      1.0000 0.89930  0.18100  0.81700  Biso   1.000  C 
  H74      1.0000 0.86620  0.20720  0.76100  Biso   1.000  H 
  H75      1.0000 0.91810  0.27400  0.84810  Biso   1.000  H 
  H76      1.0000 0.92020  0.12070  0.79150  Biso   1.000  H 
