data_image0
_cell_length_a       12.6991
_cell_length_b       15.5711
_cell_length_c       16.3313
_cell_angle_alpha    90
_cell_angle_beta     90
_cell_angle_gamma    90

_symmetry_space_group_name_H-M    "P 1"
_symmetry_int_tables_number       1

loop_
  _symmetry_equiv_pos_as_xyz
  'x, y, z'

loop_
  _atom_site_label
  _atom_site_occupancy
  _atom_site_fract_x
  _atom_site_fract_y
  _atom_site_fract_z
  _atom_site_thermal_displace_type
  _atom_site_B_iso_or_equiv
  _atom_site_type_symbol
  Mn1      1.0000 0.60058  0.00472  0.58878  Biso   1.000  Mn
  O1       1.0000 0.58509  0.12744  0.68262  Biso   1.000  O 
  C1       1.0000 0.62841  0.08034  0.73128  Biso   1.000  C 
  C2       1.0000 0.63688  0.12919  0.81928  Biso   1.000  C 
  C3       1.0000 0.58895  0.21745  0.84042  Biso   1.000  C 
  H1       1.0000 0.55000  0.24400  0.79930  Biso   1.000  H 
  C4       1.0000 0.59772  0.26380  0.91725  Biso   1.000  C 
  C5       1.0000 0.65636  0.22153  0.97299  Biso   1.000  C 
  H2       1.0000 0.66780  0.24570  0.02430  Biso   1.000  H 
  C6       1.0000 0.70445  0.13341  0.95226  Biso   1.000  C 
  C7       1.0000 0.69328  0.08649  0.87558  Biso   1.000  C 
  H3       1.0000 0.72230  0.03250  0.86660  Biso   1.000  H 
  C8       1.0000 0.77302  0.08486  0.01217  Biso   1.000  C 
  O2       1.0000 0.80079  0.14168  0.06480  Biso   1.000  O 
  Mn2      1.0000 0.89942  0.99528  0.08878  Biso   1.000  Mn
  O3       1.0000 0.91491  0.87256  0.18262  Biso   1.000  O 
  C9       1.0000 0.87159  0.91966  0.23128  Biso   1.000  C 
  O4       1.0000 0.83957  0.00589  0.22097  Biso   1.000  O 
  C10      1.0000 0.86312  0.87081  0.31928  Biso   1.000  C 
  C11      1.0000 0.91105  0.78255  0.34042  Biso   1.000  C 
  C12      1.0000 0.90228  0.73620  0.41725  Biso   1.000  C 
  C13      1.0000 0.95903  0.64384  0.44014  Biso   1.000  C 
  O5       1.0000 0.99925  0.59948  0.38270  Biso   1.000  O 
  Mn3      1.0000 0.10058  0.49528  0.41122  Biso   1.000  Mn
  O6       1.0000 0.03543  0.38258  0.48674  Biso   1.000  O 
  C14      1.0000 0.04097  0.35616  0.55986  Biso   1.000  C 
  O7       1.0000 0.00075  0.40052  0.61730  Biso   1.000  O 
  Mn4      1.0000 0.89942  0.50472  0.58878  Biso   1.000  Mn
  O8       1.0000 0.79814  0.49874  0.49855  Biso   1.000  O 
  C15      1.0000 0.77302  0.41514  0.51217  Biso   1.000  C 
  O9       1.0000 0.80079  0.35832  0.56480  Biso   1.000  O 
  C16      1.0000 0.70445  0.36659  0.45226  Biso   1.000  C 
  C17      1.0000 0.69328  0.41351  0.37558  Biso   1.000  C 
  H4       1.0000 0.72230  0.46750  0.36660  Biso   1.000  H 
  C18      1.0000 0.63688  0.37081  0.31928  Biso   1.000  C 
  C19      1.0000 0.62841  0.41966  0.23128  Biso   1.000  C 
  O10      1.0000 0.58509  0.37256  0.18262  Biso   1.000  O 
  Mn5      1.0000 0.60058  0.49528  0.08878  Biso   1.000  Mn
  O11      1.0000 0.53543  0.38258  0.01326  Biso   1.000  O 
  C20      1.0000 0.54097  0.35616  0.94014  Biso   1.000  C 
  O12      1.0000 0.50075  0.40052  0.88270  Biso   1.000  O 
  Mn6      1.0000 0.39942  0.50472  0.91122  Biso   1.000  Mn
  O13      1.0000 0.30079  0.35832  0.93520  Biso   1.000  O 
  C21      1.0000 0.27302  0.41514  0.98783  Biso   1.000  C 
  C22      1.0000 0.20445  0.36659  0.04774  Biso   1.000  C 
  C23      1.0000 0.15636  0.27847  0.02701  Biso   1.000  C 
  C24      1.0000 0.09772  0.23620  0.08275  Biso   1.000  C 
  C25      1.0000 0.04097  0.14384  0.05986  Biso   1.000  C 
  O14      1.0000 0.00075  0.09948  0.11730  Biso   1.000  O 
  O15      1.0000 0.03543  0.11742  0.98674  Biso   1.000  O 
  Mn7      1.0000 0.10058  0.00472  0.91122  Biso   1.000  Mn
  C26      1.0000 0.12841  0.08034  0.76872  Biso   1.000  C 
  O16      1.0000 0.08509  0.12744  0.81738  Biso   1.000  O 
  C27      1.0000 0.13688  0.12919  0.68072  Biso   1.000  C 
  C28      1.0000 0.08895  0.21745  0.65958  Biso   1.000  C 
  H5       1.0000 0.05000  0.24400  0.70070  Biso   1.000  H 
  C29      1.0000 0.09772  0.26380  0.58275  Biso   1.000  C 
  C30      1.0000 0.15636  0.22153  0.52701  Biso   1.000  C 
  H6       1.0000 0.16780  0.24570  0.47570  Biso   1.000  H 
  C31      1.0000 0.20445  0.13341  0.54774  Biso   1.000  C 
  C32      1.0000 0.27302  0.08486  0.48783  Biso   1.000  C 
  O17      1.0000 0.30079  0.14168  0.43520  Biso   1.000  O 
  Mn8      1.0000 0.39942  0.99528  0.41122  Biso   1.000  Mn
  O18      1.0000 0.46457  0.88258  0.48674  Biso   1.000  O 
  C33      1.0000 0.45903  0.85616  0.55986  Biso   1.000  C 
  O19      1.0000 0.49925  0.90052  0.61730  Biso   1.000  O 
  C34      1.0000 0.40228  0.76380  0.58275  Biso   1.000  C 
  C35      1.0000 0.34364  0.72153  0.52701  Biso   1.000  C 
  H7       1.0000 0.33220  0.74570  0.47570  Biso   1.000  H 
  C36      1.0000 0.29555  0.63341  0.54774  Biso   1.000  C 
  C37      1.0000 0.22698  0.58486  0.48783  Biso   1.000  C 
  O20      1.0000 0.19921  0.64168  0.43520  Biso   1.000  O 
  O21      1.0000 0.20186  0.50126  0.50145  Biso   1.000  O 
  C38      1.0000 0.30672  0.58649  0.62442  Biso   1.000  C 
  C39      1.0000 0.36312  0.62919  0.68072  Biso   1.000  C 
  C40      1.0000 0.41105  0.71745  0.65958  Biso   1.000  C 
  H8       1.0000 0.45000  0.74400  0.70070  Biso   1.000  H 
  C41      1.0000 0.37159  0.58034  0.76872  Biso   1.000  C 
  O22      1.0000 0.33957  0.49411  0.77903  Biso   1.000  O 
  O23      1.0000 0.41491  0.62744  0.81738  Biso   1.000  O 
  H9       1.0000 0.27770  0.53250  0.63340  Biso   1.000  H 
  C42      1.0000 0.37159  0.91966  0.26872  Biso   1.000  C 
  O24      1.0000 0.41491  0.87256  0.31738  Biso   1.000  O 
  O25      1.0000 0.33957  0.00589  0.27903  Biso   1.000  O 
  C43      1.0000 0.36312  0.87081  0.18072  Biso   1.000  C 
  C44      1.0000 0.41105  0.78255  0.15958  Biso   1.000  C 
  C45      1.0000 0.40228  0.73620  0.08275  Biso   1.000  C 
  C46      1.0000 0.45903  0.64384  0.05986  Biso   1.000  C 
  O26      1.0000 0.49925  0.59948  0.11730  Biso   1.000  O 
  O27      1.0000 0.46457  0.61742  0.98674  Biso   1.000  O 
  C47      1.0000 0.34364  0.77847  0.02701  Biso   1.000  C 
  C48      1.0000 0.29555  0.86659  0.04774  Biso   1.000  C 
  C49      1.0000 0.30672  0.91351  0.12442  Biso   1.000  C 
  H10      1.0000 0.27770  0.96750  0.13340  Biso   1.000  H 
  C50      1.0000 0.22698  0.91514  0.98783  Biso   1.000  C 
  O28      1.0000 0.19921  0.85832  0.93520  Biso   1.000  O 
  O29      1.0000 0.20186  0.99874  0.00145  Biso   1.000  O 
  H11      1.0000 0.33220  0.75430  0.97570  Biso   1.000  H 
  H12      1.0000 0.45000  0.75600  0.20070  Biso   1.000  H 
  O30      1.0000 0.50075  0.09948  0.38270  Biso   1.000  O 
  C51      1.0000 0.54097  0.14384  0.44014  Biso   1.000  C 
  O31      1.0000 0.53543  0.11742  0.51326  Biso   1.000  O 
  C52      1.0000 0.59772  0.23620  0.41725  Biso   1.000  C 
  C53      1.0000 0.65636  0.27847  0.47299  Biso   1.000  C 
  H13      1.0000 0.66780  0.25430  0.52430  Biso   1.000  H 
  C54      1.0000 0.58895  0.28255  0.34042  Biso   1.000  C 
  H14      1.0000 0.55000  0.25600  0.29930  Biso   1.000  H 
  O32      1.0000 0.29814  0.00126  0.50145  Biso   1.000  O 
  C55      1.0000 0.19328  0.08649  0.62442  Biso   1.000  C 
  H15      1.0000 0.22230  0.03250  0.63340  Biso   1.000  H 
  O33      1.0000 0.16043  0.99411  0.77903  Biso   1.000  O 
  O34      1.0000 0.99925  0.90052  0.88270  Biso   1.000  O 
  C56      1.0000 0.95903  0.85616  0.94014  Biso   1.000  C 
  O35      1.0000 0.96457  0.88258  0.01326  Biso   1.000  O 
  C57      1.0000 0.90228  0.76380  0.91725  Biso   1.000  C 
  C58      1.0000 0.84364  0.72153  0.97299  Biso   1.000  C 
  H16      1.0000 0.83220  0.74570  0.02430  Biso   1.000  H 
  C59      1.0000 0.79555  0.63341  0.95226  Biso   1.000  C 
  C60      1.0000 0.80672  0.58649  0.87558  Biso   1.000  C 
  H17      1.0000 0.77770  0.53250  0.86660  Biso   1.000  H 
  C61      1.0000 0.86312  0.62919  0.81928  Biso   1.000  C 
  C62      1.0000 0.87159  0.58034  0.73128  Biso   1.000  C 
  O36      1.0000 0.83957  0.49411  0.72097  Biso   1.000  O 
  O37      1.0000 0.91491  0.62744  0.68262  Biso   1.000  O 
  C63      1.0000 0.91105  0.71745  0.84042  Biso   1.000  C 
  H18      1.0000 0.95000  0.74400  0.79930  Biso   1.000  H 
  C64      1.0000 0.72698  0.58486  0.01217  Biso   1.000  C 
  O38      1.0000 0.69921  0.64168  0.06480  Biso   1.000  O 
  O39      1.0000 0.70186  0.50126  0.99855  Biso   1.000  O 
  C65      1.0000 0.08895  0.28255  0.15958  Biso   1.000  C 
  H19      1.0000 0.05000  0.25600  0.20070  Biso   1.000  H 
  C66      1.0000 0.13688  0.37081  0.18072  Biso   1.000  C 
  C67      1.0000 0.12841  0.41966  0.26872  Biso   1.000  C 
  O40      1.0000 0.08509  0.37256  0.31738  Biso   1.000  O 
  O41      1.0000 0.16043  0.50589  0.27903  Biso   1.000  O 
  C68      1.0000 0.19328  0.41351  0.12442  Biso   1.000  C 
  H20      1.0000 0.22230  0.46750  0.13340  Biso   1.000  H 
  H21      1.0000 0.16780  0.25430  0.97570  Biso   1.000  H 
  O42      1.0000 0.29814  0.49874  0.00145  Biso   1.000  O 
  O43      1.0000 0.66043  0.50589  0.22097  Biso   1.000  O 
  O44      1.0000 0.96457  0.61742  0.51326  Biso   1.000  O 
  C69      1.0000 0.84364  0.77847  0.47299  Biso   1.000  C 
  H22      1.0000 0.83220  0.75430  0.52430  Biso   1.000  H 
  C70      1.0000 0.79555  0.86659  0.45226  Biso   1.000  C 
  C71      1.0000 0.80672  0.91351  0.37558  Biso   1.000  C 
  H23      1.0000 0.77770  0.96750  0.36660  Biso   1.000  H 
  C72      1.0000 0.72698  0.91514  0.51217  Biso   1.000  C 
  O45      1.0000 0.70186  0.99874  0.49855  Biso   1.000  O 
  O46      1.0000 0.69921  0.85832  0.56480  Biso   1.000  O 
  H24      1.0000 0.95000  0.75600  0.29930  Biso   1.000  H 
  O47      1.0000 0.79814  0.00126  0.99855  Biso   1.000  O 
  O48      1.0000 0.66043  0.99411  0.72097  Biso   1.000  O 
