data_image0
_cell_length_a       12.6099
_cell_length_b       12.1229
_cell_length_c       14.2819
_cell_angle_alpha    90
_cell_angle_beta     98.41
_cell_angle_gamma    90

_symmetry_space_group_name_H-M    "P 1"
_symmetry_int_tables_number       1

loop_
  _symmetry_equiv_pos_as_xyz
  'x, y, z'

loop_
  _atom_site_label
  _atom_site_occupancy
  _atom_site_fract_x
  _atom_site_fract_y
  _atom_site_fract_z
  _atom_site_thermal_displace_type
  _atom_site_B_iso_or_equiv
  _atom_site_type_symbol
  C1       1.0000 0.41250  0.28021  0.85807  Biso   1.000  C 
  C2       1.0000 0.33299  0.35835  0.85242  Biso   1.000  C 
  C3       1.0000 0.22829  0.32521  0.85131  Biso   1.000  C 
  C4       1.0000 0.20519  0.21349  0.85599  Biso   1.000  C 
  C5       1.0000 0.09411  0.17125  0.85548  Biso   1.000  C 
  N1       1.0000 0.08442  0.06754  0.85954  Biso   1.000  N 
  N2       1.0000 0.97903  0.02932  0.85983  Biso   1.000  N 
  C6       1.0000 0.97522  0.92882  0.88614  Biso   1.000  C 
  C7       1.0000 0.86647  0.88269  0.88897  Biso   1.000  C 
  C8       1.0000 0.77955  0.95267  0.88929  Biso   1.000  C 
  N3       1.0000 0.67911  0.91768  0.89075  Biso   1.000  N 
  C9       1.0000 0.66325  0.80819  0.89305  Biso   1.000  C 
  H1       1.0000 0.59400  0.78220  0.89410  Biso   1.000  H 
  C10      1.0000 0.74498  0.73281  0.89398  Biso   1.000  C 
  H2       1.0000 0.73090  0.65760  0.89570  Biso   1.000  H 
  C11      1.0000 0.84755  0.77002  0.89228  Biso   1.000  C 
  H3       1.0000 0.90380  0.72020  0.89330  Biso   1.000  H 
  Cd1      1.0000 0.53475  0.04634  0.88046  Biso   1.000  Cd
  O1       1.0000 0.43552  0.91696  0.95745  Biso   1.000  O 
  C12      1.0000 0.39908  0.86456  0.88312  Biso   1.000  C 
  O2       1.0000 0.41657  0.89796  0.80449  Biso   1.000  O 
  C13      1.0000 0.33775  0.75937  0.89232  Biso   1.000  C 
  H4       1.0000 0.28580  0.77190  0.93500  Biso   1.000  H 
  H5       1.0000 0.38720  0.70310  0.92020  Biso   1.000  H 
  C14      1.0000 0.27960  0.71724  0.79833  Biso   1.000  C 
  H6       1.0000 0.22770  0.66210  0.81090  Biso   1.000  H 
  H7       1.0000 0.24030  0.77800  0.76530  Biso   1.000  H 
  C15      1.0000 0.35196  0.66738  0.73415  Biso   1.000  C 
  Cd2      1.0000 0.46525  0.54634  0.61954  Biso   1.000  Cd
  C16      1.0000 0.60092  0.36456  0.61688  Biso   1.000  C 
  O3       1.0000 0.56448  0.41696  0.54255  Biso   1.000  O 
  Cd3      1.0000 0.53475  0.45366  0.38046  Biso   1.000  Cd
  C17      1.0000 0.64804  0.33262  0.26585  Biso   1.000  C 
  O4       1.0000 0.57415  0.39640  0.23103  Biso   1.000  O 
  O5       1.0000 0.66668  0.31484  0.35342  Biso   1.000  O 
  C18      1.0000 0.72040  0.28276  0.20167  Biso   1.000  C 
  C19      1.0000 0.66225  0.24063  0.10768  Biso   1.000  C 
  H8       1.0000 0.61280  0.29690  0.07980  Biso   1.000  H 
  C20      1.0000 0.60092  0.13544  0.11688  Biso   1.000  C 
  O6       1.0000 0.58343  0.10204  0.19551  Biso   1.000  O 
  Cd4      1.0000 0.46525  0.95366  0.11954  Biso   1.000  Cd
  C21      1.0000 0.35196  0.83262  0.23415  Biso   1.000  C 
  O7       1.0000 0.33332  0.81484  0.14658  Biso   1.000  O 
  C22      1.0000 0.27960  0.78276  0.29833  Biso   1.000  C 
  H9       1.0000 0.24030  0.72200  0.26530  Biso   1.000  H 
  H10      1.0000 0.22770  0.83790  0.31090  Biso   1.000  H 
  C23      1.0000 0.33775  0.74063  0.39232  Biso   1.000  C 
  C24      1.0000 0.39908  0.63544  0.38312  Biso   1.000  C 
  O8       1.0000 0.41657  0.60204  0.30449  Biso   1.000  O 
  O9       1.0000 0.43552  0.58304  0.45745  Biso   1.000  O 
  H11      1.0000 0.28580  0.72810  0.43500  Biso   1.000  H 
  H12      1.0000 0.38720  0.79690  0.42020  Biso   1.000  H 
  O10      1.0000 0.42585  0.89640  0.26897  Biso   1.000  O 
  N4       1.0000 0.60733  0.82805  0.13590  Biso   1.000  N 
  C25      1.0000 0.58750  0.71979  0.14193  Biso   1.000  C 
  C26      1.0000 0.66701  0.64165  0.14758  Biso   1.000  C 
  H13      1.0000 0.65040  0.56710  0.15060  Biso   1.000  H 
  C27      1.0000 0.77171  0.67479  0.14869  Biso   1.000  C 
  C28      1.0000 0.79481  0.78651  0.14401  Biso   1.000  C 
  C29      1.0000 0.70875  0.85963  0.13745  Biso   1.000  C 
  H14      1.0000 0.72290  0.93470  0.13400  Biso   1.000  H 
  C30      1.0000 0.90589  0.82875  0.14452  Biso   1.000  C 
  N5       1.0000 0.91558  0.93246  0.14046  Biso   1.000  N 
  N6       1.0000 0.02097  0.97068  0.14017  Biso   1.000  N 
  C31      1.0000 0.02478  0.07118  0.11386  Biso   1.000  C 
  C32      1.0000 0.13353  0.11731  0.11103  Biso   1.000  C 
  C33      1.0000 0.15245  0.22998  0.10772  Biso   1.000  C 
  C34      1.0000 0.25502  0.26719  0.10602  Biso   1.000  C 
  C35      1.0000 0.33675  0.19181  0.10695  Biso   1.000  C 
  H15      1.0000 0.40600  0.21780  0.10590  Biso   1.000  H 
  N7       1.0000 0.32089  0.08232  0.10925  Biso   1.000  N 
  C36      1.0000 0.22045  0.04733  0.11071  Biso   1.000  C 
  H16      1.0000 0.20830  0.97170  0.11150  Biso   1.000  H 
  H17      1.0000 0.26910  0.34240  0.10430  Biso   1.000  H 
  H18      1.0000 0.09620  0.27980  0.10670  Biso   1.000  H 
  C37      1.0000 0.92829  0.14160  0.08410  Biso   1.000  C 
  H19      1.0000 0.93140  0.20570  0.12370  Biso   1.000  H 
  H20      1.0000 0.86460  0.10030  0.08990  Biso   1.000  H 
  H21      1.0000 0.92700  0.16390  0.01940  Biso   1.000  H 
  C38      1.0000 0.99530  0.74690  0.14700  Biso   1.000  C 
  H22      1.0000 0.99910  0.70290  0.20330  Biso   1.000  H 
  H23      1.0000 0.98220  0.70000  0.09240  Biso   1.000  H 
  H24      1.0000 0.06180  0.78540  0.14700  Biso   1.000  H 
  H25      1.0000 0.82640  0.62280  0.15250  Biso   1.000  H 
  H26      1.0000 0.51720  0.69680  0.14230  Biso   1.000  H 
  O11      1.0000 0.56448  0.08304  0.04255  Biso   1.000  O 
  H27      1.0000 0.71420  0.22810  0.06500  Biso   1.000  H 
  H28      1.0000 0.75970  0.22200  0.23470  Biso   1.000  H 
  H29      1.0000 0.77230  0.33790  0.18910  Biso   1.000  H 
  N8       1.0000 0.39267  0.32805  0.36410  Biso   1.000  N 
  C39      1.0000 0.41250  0.21979  0.35807  Biso   1.000  C 
  C40      1.0000 0.33299  0.14165  0.35242  Biso   1.000  C 
  H30      1.0000 0.34960  0.06710  0.34940  Biso   1.000  H 
  C41      1.0000 0.22829  0.17479  0.35131  Biso   1.000  C 
  H31      1.0000 0.17360  0.12280  0.34750  Biso   1.000  H 
  C42      1.0000 0.20519  0.28651  0.35599  Biso   1.000  C 
  C43      1.0000 0.09411  0.32875  0.35548  Biso   1.000  C 
  N9       1.0000 0.08442  0.43246  0.35954  Biso   1.000  N 
  N10      1.0000 0.97903  0.47068  0.35983  Biso   1.000  N 
  C44      1.0000 0.97522  0.57118  0.38614  Biso   1.000  C 
  C45      1.0000 0.86647  0.61731  0.38897  Biso   1.000  C 
  C46      1.0000 0.77955  0.54733  0.38929  Biso   1.000  C 
  H32      1.0000 0.79170  0.47170  0.38850  Biso   1.000  H 
  N11      1.0000 0.67911  0.58232  0.39075  Biso   1.000  N 
  C47      1.0000 0.66325  0.69181  0.39305  Biso   1.000  C 
  H33      1.0000 0.59400  0.71780  0.39410  Biso   1.000  H 
  C48      1.0000 0.74498  0.76719  0.39398  Biso   1.000  C 
  H34      1.0000 0.73090  0.84240  0.39570  Biso   1.000  H 
  C49      1.0000 0.84755  0.72998  0.39228  Biso   1.000  C 
  H35      1.0000 0.90380  0.77980  0.39330  Biso   1.000  H 
  C50      1.0000 0.07171  0.64160  0.41590  Biso   1.000  C 
  H36      1.0000 0.06860  0.70570  0.37630  Biso   1.000  H 
  H37      1.0000 0.13540  0.60030  0.41010  Biso   1.000  H 
  H38      1.0000 0.07300  0.66390  0.48060  Biso   1.000  H 
  C51      1.0000 0.00470  0.24690  0.35300  Biso   1.000  C 
  H39      1.0000 0.00090  0.20290  0.29670  Biso   1.000  H 
  H40      1.0000 0.01780  0.20000  0.40760  Biso   1.000  H 
  H41      1.0000 0.93820  0.28540  0.35300  Biso   1.000  H 
  C52      1.0000 0.29125  0.35963  0.36255  Biso   1.000  C 
  H42      1.0000 0.27710  0.43470  0.36600  Biso   1.000  H 
  H43      1.0000 0.48280  0.19680  0.35770  Biso   1.000  H 
  O12      1.0000 0.58343  0.39796  0.69551  Biso   1.000  O 
  C53      1.0000 0.66225  0.25937  0.60768  Biso   1.000  C 
  H44      1.0000 0.71420  0.27190  0.56500  Biso   1.000  H 
  H45      1.0000 0.61280  0.20310  0.57980  Biso   1.000  H 
  C54      1.0000 0.72040  0.21724  0.70167  Biso   1.000  C 
  H46      1.0000 0.77230  0.16210  0.68910  Biso   1.000  H 
  H47      1.0000 0.75970  0.27800  0.73470  Biso   1.000  H 
  C55      1.0000 0.64804  0.16738  0.76585  Biso   1.000  C 
  O13      1.0000 0.57415  0.10360  0.73103  Biso   1.000  O 
  O14      1.0000 0.66668  0.18516  0.85342  Biso   1.000  O 
  N12      1.0000 0.60733  0.67195  0.63590  Biso   1.000  N 
  C56      1.0000 0.58750  0.78021  0.64193  Biso   1.000  C 
  H48      1.0000 0.51720  0.80320  0.64230  Biso   1.000  H 
  C57      1.0000 0.66701  0.85835  0.64758  Biso   1.000  C 
  H49      1.0000 0.65040  0.93290  0.65060  Biso   1.000  H 
  C58      1.0000 0.77171  0.82521  0.64869  Biso   1.000  C 
  H50      1.0000 0.82640  0.87720  0.65250  Biso   1.000  H 
  C59      1.0000 0.79481  0.71349  0.64401  Biso   1.000  C 
  C60      1.0000 0.70875  0.64037  0.63745  Biso   1.000  C 
  H51      1.0000 0.72290  0.56530  0.63400  Biso   1.000  H 
  C61      1.0000 0.90589  0.67125  0.64452  Biso   1.000  C 
  N13      1.0000 0.91558  0.56754  0.64046  Biso   1.000  N 
  N14      1.0000 0.02097  0.52932  0.64017  Biso   1.000  N 
  C62      1.0000 0.02478  0.42882  0.61386  Biso   1.000  C 
  C63      1.0000 0.13353  0.38269  0.61103  Biso   1.000  C 
  C64      1.0000 0.15245  0.27002  0.60772  Biso   1.000  C 
  H52      1.0000 0.09620  0.22020  0.60670  Biso   1.000  H 
  C65      1.0000 0.25502  0.23281  0.60602  Biso   1.000  C 
  H53      1.0000 0.26910  0.15760  0.60430  Biso   1.000  H 
  C66      1.0000 0.33675  0.30819  0.60695  Biso   1.000  C 
  N15      1.0000 0.32089  0.41768  0.60925  Biso   1.000  N 
  C67      1.0000 0.22045  0.45267  0.61071  Biso   1.000  C 
  H54      1.0000 0.20830  0.52830  0.61150  Biso   1.000  H 
  H55      1.0000 0.40600  0.28220  0.60590  Biso   1.000  H 
  C68      1.0000 0.92829  0.35840  0.58410  Biso   1.000  C 
  H56      1.0000 0.92700  0.33610  0.51940  Biso   1.000  H 
  H57      1.0000 0.86460  0.39970  0.58990  Biso   1.000  H 
  H58      1.0000 0.93140  0.29430  0.62370  Biso   1.000  H 
  C69      1.0000 0.99530  0.75310  0.64700  Biso   1.000  C 
  H59      1.0000 0.98220  0.80000  0.59240  Biso   1.000  H 
  H60      1.0000 0.99910  0.79710  0.70330  Biso   1.000  H 
  H61      1.0000 0.06180  0.71460  0.64700  Biso   1.000  H 
  O15      1.0000 0.42585  0.60360  0.76897  Biso   1.000  O 
  O16      1.0000 0.33332  0.68516  0.64658  Biso   1.000  O 
  N16      1.0000 0.39267  0.17195  0.86410  Biso   1.000  N 
  C70      1.0000 0.29125  0.14037  0.86255  Biso   1.000  C 
  H62      1.0000 0.27710  0.06530  0.86600  Biso   1.000  H 
  H63      1.0000 0.79170  0.02830  0.88850  Biso   1.000  H 
  C71      1.0000 0.07171  0.85840  0.91590  Biso   1.000  C 
  H64      1.0000 0.07300  0.83610  0.98060  Biso   1.000  H 
  H65      1.0000 0.06860  0.79430  0.87630  Biso   1.000  H 
  H66      1.0000 0.13540  0.89970  0.91010  Biso   1.000  H 
  C72      1.0000 0.00470  0.25310  0.85300  Biso   1.000  C 
  H67      1.0000 0.01780  0.30000  0.90760  Biso   1.000  H 
  H68      1.0000 0.00090  0.29710  0.79670  Biso   1.000  H 
  H69      1.0000 0.93820  0.21460  0.85300  Biso   1.000  H 
  H70      1.0000 0.17360  0.37720  0.84750  Biso   1.000  H 
  H71      1.0000 0.34960  0.43290  0.84940  Biso   1.000  H 
  H72      1.0000 0.48280  0.30320  0.85770  Biso   1.000  H 
