data_image0
_cell_length_a       24.709
_cell_length_b       11.5985
_cell_length_c       14.2484
_cell_angle_alpha    90
_cell_angle_beta     103.464
_cell_angle_gamma    90

_symmetry_space_group_name_H-M    "P 1"
_symmetry_int_tables_number       1

loop_
  _symmetry_equiv_pos_as_xyz
  'x, y, z'

loop_
  _atom_site_label
  _atom_site_occupancy
  _atom_site_fract_x
  _atom_site_fract_y
  _atom_site_fract_z
  _atom_site_thermal_displace_type
  _atom_site_B_iso_or_equiv
  _atom_site_type_symbol
  C1       1.0000 0.33213  0.40240  0.29240  Biso   1.000  C 
  Cd1      1.0000 0.27702  0.27812  0.13575  Biso   1.000  Cd
  C2       1.0000 0.21144  0.08390  0.07730  Biso   1.000  C 
  O1       1.0000 0.22879  0.10410  0.16403  Biso   1.000  O 
  O2       1.0000 0.22825  0.14260  0.01583  Biso   1.000  O 
  Cd2      1.0000 0.22298  0.22188  0.86425  Biso   1.000  Cd
  C3       1.0000 0.16787  0.09760  0.70760  Biso   1.000  C 
  C4       1.0000 0.13575  0.03890  0.61670  Biso   1.000  C 
  C5       1.0000 0.16912  0.00970  0.54390  Biso   1.000  C 
  H1       1.0000 0.18810  0.07850  0.53000  Biso   1.000  H 
  H2       1.0000 0.14390  0.98530  0.48440  Biso   1.000  H 
  C6       1.0000 0.21144  0.91610  0.57730  Biso   1.000  C 
  O3       1.0000 0.22825  0.85740  0.51583  Biso   1.000  O 
  Cd3      1.0000 0.22298  0.77812  0.36425  Biso   1.000  Cd
  C7       1.0000 0.16787  0.90240  0.20760  Biso   1.000  C 
  C8       1.0000 0.13575  0.96110  0.11670  Biso   1.000  C 
  C9       1.0000 0.16912  0.99030  0.04390  Biso   1.000  C 
  H3       1.0000 0.18810  0.92150  0.03000  Biso   1.000  H 
  H4       1.0000 0.14390  0.01470  0.98440  Biso   1.000  H 
  H5       1.0000 0.10520  0.91140  0.08600  Biso   1.000  H 
  H6       1.0000 0.11980  0.03170  0.13490  Biso   1.000  H 
  O4       1.0000 0.19841  0.81910  0.19772  Biso   1.000  O 
  O5       1.0000 0.16205  0.93360  0.28880  Biso   1.000  O 
  C10      1.0000 0.28856  0.58390  0.42270  Biso   1.000  C 
  O6       1.0000 0.27121  0.60410  0.33597  Biso   1.000  O 
  O7       1.0000 0.27175  0.64260  0.48417  Biso   1.000  O 
  Cd4      1.0000 0.27702  0.72188  0.63575  Biso   1.000  Cd
  C11      1.0000 0.33213  0.59760  0.79240  Biso   1.000  C 
  C12      1.0000 0.36425  0.53890  0.88330  Biso   1.000  C 
  H7       1.0000 0.38020  0.46830  0.86510  Biso   1.000  H 
  C13      1.0000 0.33088  0.50970  0.95610  Biso   1.000  C 
  C14      1.0000 0.28856  0.41610  0.92270  Biso   1.000  C 
  O8       1.0000 0.27175  0.35740  0.98417  Biso   1.000  O 
  O9       1.0000 0.27121  0.39590  0.83597  Biso   1.000  O 
  H8       1.0000 0.31190  0.57850  0.97000  Biso   1.000  H 
  H9       1.0000 0.35610  0.48530  0.01560  Biso   1.000  H 
  H10      1.0000 0.39480  0.58860  0.91400  Biso   1.000  H 
  O10      1.0000 0.33795  0.56640  0.71120  Biso   1.000  O 
  O11      1.0000 0.30159  0.68090  0.80228  Biso   1.000  O 
  N1       1.0000 0.35985  0.81660  0.63020  Biso   1.000  N 
  C15      1.0000 0.40644  0.75440  0.63350  Biso   1.000  C 
  H11      1.0000 0.40470  0.67450  0.63770  Biso   1.000  H 
  C16      1.0000 0.45659  0.80520  0.63070  Biso   1.000  C 
  C17      1.0000 0.45888  0.92310  0.62480  Biso   1.000  C 
  C18      1.0000 0.41169  0.98720  0.62170  Biso   1.000  C 
  C19      1.0000 0.36277  0.93030  0.62430  Biso   1.000  C 
  H12      1.0000 0.33080  0.97360  0.62180  Biso   1.000  H 
  H13      1.0000 0.41260  0.06720  0.61790  Biso   1.000  H 
  N2       1.0000 0.50902  0.98720  0.62450  Biso   1.000  N 
  N3       1.0000 0.54969  0.92960  0.62760  Biso   1.000  N 
  C20      1.0000 0.59928  0.99680  0.63040  Biso   1.000  C 
  C21      1.0000 0.64725  0.93790  0.62530  Biso   1.000  C 
  H14      1.0000 0.64740  0.85800  0.62020  Biso   1.000  H 
  C22      1.0000 0.69491  0.00130  0.62810  Biso   1.000  C 
  N4       1.0000 0.69649  0.11630  0.63390  Biso   1.000  N 
  Cd5      1.0000 0.77702  0.22188  0.63575  Biso   1.000  Cd
  C23      1.0000 0.83213  0.09760  0.79240  Biso   1.000  C 
  O12      1.0000 0.83795  0.06640  0.71120  Biso   1.000  O 
  O13      1.0000 0.80159  0.18090  0.80228  Biso   1.000  O 
  C24      1.0000 0.86425  0.03890  0.88330  Biso   1.000  C 
  C25      1.0000 0.83088  0.00970  0.95610  Biso   1.000  C 
  H15      1.0000 0.81190  0.07850  0.97000  Biso   1.000  H 
  H16      1.0000 0.85610  0.98530  0.01560  Biso   1.000  H 
  C26      1.0000 0.78856  0.91610  0.92270  Biso   1.000  C 
  Cd6      1.0000 0.72298  0.72188  0.86425  Biso   1.000  Cd
  O14      1.0000 0.72825  0.64260  0.01583  Biso   1.000  O 
  Cd7      1.0000 0.77702  0.77812  0.13575  Biso   1.000  Cd
  C27      1.0000 0.83213  0.90240  0.29240  Biso   1.000  C 
  O15      1.0000 0.83795  0.93360  0.21120  Biso   1.000  O 
  O16      1.0000 0.80159  0.81910  0.30228  Biso   1.000  O 
  C28      1.0000 0.86425  0.96110  0.38330  Biso   1.000  C 
  H17      1.0000 0.89480  0.91140  0.41400  Biso   1.000  H 
  C29      1.0000 0.83088  0.99030  0.45610  Biso   1.000  C 
  H18      1.0000 0.81190  0.92150  0.47000  Biso   1.000  H 
  C30      1.0000 0.78856  0.08390  0.42270  Biso   1.000  C 
  Cd8      1.0000 0.72298  0.27812  0.36425  Biso   1.000  Cd
  C31      1.0000 0.66787  0.40240  0.20760  Biso   1.000  C 
  O17      1.0000 0.69841  0.31910  0.19772  Biso   1.000  O 
  C32      1.0000 0.63575  0.46110  0.11670  Biso   1.000  C 
  H19      1.0000 0.61980  0.53170  0.13490  Biso   1.000  H 
  C33      1.0000 0.66912  0.49030  0.04390  Biso   1.000  C 
  C34      1.0000 0.71144  0.58390  0.07730  Biso   1.000  C 
  O18      1.0000 0.72879  0.60410  0.16403  Biso   1.000  O 
  H20      1.0000 0.68810  0.42150  0.03000  Biso   1.000  H 
  H21      1.0000 0.64390  0.51470  0.98440  Biso   1.000  H 
  H22      1.0000 0.60520  0.41140  0.08600  Biso   1.000  H 
  O19      1.0000 0.66205  0.43360  0.28880  Biso   1.000  O 
  N5       1.0000 0.64015  0.18340  0.36980  Biso   1.000  N 
  C35      1.0000 0.59356  0.24560  0.36650  Biso   1.000  C 
  C36      1.0000 0.54341  0.19480  0.36930  Biso   1.000  C 
  H23      1.0000 0.51190  0.23950  0.36720  Biso   1.000  H 
  C37      1.0000 0.54112  0.07690  0.37520  Biso   1.000  C 
  N6       1.0000 0.49098  0.01280  0.37550  Biso   1.000  N 
  N7       1.0000 0.45031  0.07040  0.37240  Biso   1.000  N 
  C38      1.0000 0.40072  0.00320  0.36960  Biso   1.000  C 
  C39      1.0000 0.35275  0.06210  0.37470  Biso   1.000  C 
  H24      1.0000 0.35260  0.14200  0.37980  Biso   1.000  H 
  C40      1.0000 0.30509  0.99870  0.37190  Biso   1.000  C 
  N8       1.0000 0.30351  0.88370  0.36610  Biso   1.000  N 
  C41      1.0000 0.35001  0.82970  0.35870  Biso   1.000  C 
  H25      1.0000 0.34890  0.75010  0.35110  Biso   1.000  H 
  C42      1.0000 0.39978  0.88600  0.36190  Biso   1.000  C 
  H26      1.0000 0.43170  0.84500  0.35890  Biso   1.000  H 
  H27      1.0000 0.27260  0.03790  0.37410  Biso   1.000  H 
  C43      1.0000 0.58831  0.01280  0.37830  Biso   1.000  C 
  C44      1.0000 0.63723  0.06970  0.37570  Biso   1.000  C 
  H28      1.0000 0.66920  0.02640  0.37820  Biso   1.000  H 
  H29      1.0000 0.58740  0.93280  0.38210  Biso   1.000  H 
  H30      1.0000 0.59530  0.32550  0.36230  Biso   1.000  H 
  N9       1.0000 0.80351  0.38370  0.36610  Biso   1.000  N 
  C45      1.0000 0.80509  0.49870  0.37190  Biso   1.000  C 
  H31      1.0000 0.77260  0.53790  0.37410  Biso   1.000  H 
  C46      1.0000 0.85275  0.56210  0.37470  Biso   1.000  C 
  H32      1.0000 0.85260  0.64200  0.37980  Biso   1.000  H 
  C47      1.0000 0.90072  0.50320  0.36960  Biso   1.000  C 
  C48      1.0000 0.89978  0.38600  0.36190  Biso   1.000  C 
  H33      1.0000 0.93170  0.34500  0.35890  Biso   1.000  H 
  C49      1.0000 0.85001  0.32970  0.35870  Biso   1.000  C 
  H34      1.0000 0.84890  0.25010  0.35110  Biso   1.000  H 
  N10      1.0000 0.95031  0.57040  0.37240  Biso   1.000  N 
  N11      1.0000 0.99098  0.51280  0.37550  Biso   1.000  N 
  C50      1.0000 0.04112  0.57690  0.37520  Biso   1.000  C 
  C51      1.0000 0.08831  0.51280  0.37830  Biso   1.000  C 
  H35      1.0000 0.08740  0.43280  0.38210  Biso   1.000  H 
  C52      1.0000 0.13723  0.56970  0.37570  Biso   1.000  C 
  H36      1.0000 0.16920  0.52640  0.37820  Biso   1.000  H 
  N12      1.0000 0.14015  0.68340  0.36980  Biso   1.000  N 
  C53      1.0000 0.09356  0.74560  0.36650  Biso   1.000  C 
  H37      1.0000 0.09530  0.82550  0.36230  Biso   1.000  H 
  C54      1.0000 0.04341  0.69480  0.36930  Biso   1.000  C 
  H38      1.0000 0.01190  0.73950  0.36720  Biso   1.000  H 
  O20      1.0000 0.77121  0.10410  0.33597  Biso   1.000  O 
  O21      1.0000 0.77175  0.14260  0.48417  Biso   1.000  O 
  O22      1.0000 0.72825  0.35740  0.51583  Biso   1.000  O 
  C55      1.0000 0.71144  0.41610  0.57730  Biso   1.000  C 
  O23      1.0000 0.72879  0.39590  0.66403  Biso   1.000  O 
  C56      1.0000 0.66912  0.50970  0.54390  Biso   1.000  C 
  H39      1.0000 0.64390  0.48530  0.48440  Biso   1.000  H 
  H40      1.0000 0.68810  0.57850  0.53000  Biso   1.000  H 
  C57      1.0000 0.63575  0.53890  0.61670  Biso   1.000  C 
  H41      1.0000 0.61980  0.46830  0.63490  Biso   1.000  H 
  H42      1.0000 0.60520  0.58860  0.58600  Biso   1.000  H 
  C58      1.0000 0.66787  0.59760  0.70760  Biso   1.000  C 
  O24      1.0000 0.69841  0.68090  0.69772  Biso   1.000  O 
  O25      1.0000 0.66205  0.56640  0.78880  Biso   1.000  O 
  H43      1.0000 0.85610  0.01470  0.51560  Biso   1.000  H 
  H44      1.0000 0.88020  0.03170  0.36510  Biso   1.000  H 
  N13      1.0000 0.85985  0.68340  0.13020  Biso   1.000  N 
  C59      1.0000 0.90644  0.74560  0.13350  Biso   1.000  C 
  H45      1.0000 0.90470  0.82550  0.13770  Biso   1.000  H 
  C60      1.0000 0.95659  0.69480  0.13070  Biso   1.000  C 
  H46      1.0000 0.98810  0.73950  0.13280  Biso   1.000  H 
  C61      1.0000 0.95888  0.57690  0.12480  Biso   1.000  C 
  C62      1.0000 0.91169  0.51280  0.12170  Biso   1.000  C 
  H47      1.0000 0.91260  0.43280  0.11790  Biso   1.000  H 
  C63      1.0000 0.86277  0.56970  0.12430  Biso   1.000  C 
  H48      1.0000 0.83080  0.52640  0.12180  Biso   1.000  H 
  N14      1.0000 0.00902  0.51280  0.12450  Biso   1.000  N 
  N15      1.0000 0.04969  0.57040  0.12760  Biso   1.000  N 
  C64      1.0000 0.09928  0.50320  0.13040  Biso   1.000  C 
  C65      1.0000 0.10022  0.38600  0.13810  Biso   1.000  C 
  H49      1.0000 0.06830  0.34500  0.14110  Biso   1.000  H 
  C66      1.0000 0.14999  0.32970  0.14130  Biso   1.000  C 
  N16      1.0000 0.19649  0.38370  0.13390  Biso   1.000  N 
  C67      1.0000 0.19491  0.49870  0.12810  Biso   1.000  C 
  H50      1.0000 0.22740  0.53790  0.12590  Biso   1.000  H 
  C68      1.0000 0.14725  0.56210  0.12530  Biso   1.000  C 
  H51      1.0000 0.14740  0.64200  0.12020  Biso   1.000  H 
  H52      1.0000 0.15110  0.25010  0.14890  Biso   1.000  H 
  N17      1.0000 0.69649  0.88370  0.13390  Biso   1.000  N 
  C69      1.0000 0.69491  0.99870  0.12810  Biso   1.000  C 
  C70      1.0000 0.64725  0.06210  0.12530  Biso   1.000  C 
  H53      1.0000 0.64740  0.14200  0.12020  Biso   1.000  H 
  C71      1.0000 0.59928  0.00320  0.13040  Biso   1.000  C 
  N18      1.0000 0.54969  0.07040  0.12760  Biso   1.000  N 
  N19      1.0000 0.50902  0.01280  0.12450  Biso   1.000  N 
  C72      1.0000 0.45888  0.07690  0.12480  Biso   1.000  C 
  C73      1.0000 0.41169  0.01280  0.12170  Biso   1.000  C 
  C74      1.0000 0.36277  0.06970  0.12430  Biso   1.000  C 
  H54      1.0000 0.33080  0.02640  0.12180  Biso   1.000  H 
  N20      1.0000 0.35985  0.18340  0.13020  Biso   1.000  N 
  C75      1.0000 0.40644  0.24560  0.13350  Biso   1.000  C 
  H55      1.0000 0.40470  0.32550  0.13770  Biso   1.000  H 
  C76      1.0000 0.45659  0.19480  0.13070  Biso   1.000  C 
  H56      1.0000 0.48810  0.23950  0.13280  Biso   1.000  H 
  H57      1.0000 0.41260  0.93280  0.11790  Biso   1.000  H 
  C77      1.0000 0.60022  0.88600  0.13810  Biso   1.000  C 
  H58      1.0000 0.56830  0.84500  0.14110  Biso   1.000  H 
  C78      1.0000 0.64999  0.82970  0.14130  Biso   1.000  C 
  H59      1.0000 0.65110  0.75010  0.14890  Biso   1.000  H 
  H60      1.0000 0.72740  0.03790  0.12590  Biso   1.000  H 
  O26      1.0000 0.77175  0.85740  0.98417  Biso   1.000  O 
  N21      1.0000 0.64015  0.81660  0.86980  Biso   1.000  N 
  C79      1.0000 0.59356  0.75440  0.86650  Biso   1.000  C 
  C80      1.0000 0.54341  0.80520  0.86930  Biso   1.000  C 
  H61      1.0000 0.51190  0.76050  0.86720  Biso   1.000  H 
  C81      1.0000 0.54112  0.92310  0.87520  Biso   1.000  C 
  N22      1.0000 0.49098  0.98720  0.87550  Biso   1.000  N 
  N23      1.0000 0.45031  0.92960  0.87240  Biso   1.000  N 
  C82      1.0000 0.40072  0.99680  0.86960  Biso   1.000  C 
  C83      1.0000 0.35275  0.93790  0.87470  Biso   1.000  C 
  H62      1.0000 0.35260  0.85800  0.87980  Biso   1.000  H 
  C84      1.0000 0.30509  0.00130  0.87190  Biso   1.000  C 
  N24      1.0000 0.30351  0.11630  0.86610  Biso   1.000  N 
  C85      1.0000 0.35001  0.17030  0.85870  Biso   1.000  C 
  C86      1.0000 0.39978  0.11400  0.86190  Biso   1.000  C 
  H63      1.0000 0.43170  0.15500  0.85890  Biso   1.000  H 
  H64      1.0000 0.34890  0.24990  0.85110  Biso   1.000  H 
  H65      1.0000 0.27260  0.96210  0.87410  Biso   1.000  H 
  C87      1.0000 0.58831  0.98720  0.87830  Biso   1.000  C 
  C88      1.0000 0.63723  0.93030  0.87570  Biso   1.000  C 
  H66      1.0000 0.66920  0.97360  0.87820  Biso   1.000  H 
  H67      1.0000 0.58740  0.06720  0.88210  Biso   1.000  H 
  H68      1.0000 0.59530  0.67450  0.86230  Biso   1.000  H 
  N25      1.0000 0.80351  0.61630  0.86610  Biso   1.000  N 
  C89      1.0000 0.80509  0.50130  0.87190  Biso   1.000  C 
  H69      1.0000 0.77260  0.46210  0.87410  Biso   1.000  H 
  C90      1.0000 0.85275  0.43790  0.87470  Biso   1.000  C 
  H70      1.0000 0.85260  0.35800  0.87980  Biso   1.000  H 
  C91      1.0000 0.90072  0.49680  0.86960  Biso   1.000  C 
  N26      1.0000 0.95031  0.42960  0.87240  Biso   1.000  N 
  N27      1.0000 0.99098  0.48720  0.87550  Biso   1.000  N 
  C92      1.0000 0.04112  0.42310  0.87520  Biso   1.000  C 
  C93      1.0000 0.08831  0.48720  0.87830  Biso   1.000  C 
  C94      1.0000 0.13723  0.43030  0.87570  Biso   1.000  C 
  N28      1.0000 0.14015  0.31660  0.86980  Biso   1.000  N 
  C95      1.0000 0.09356  0.25440  0.86650  Biso   1.000  C 
  C96      1.0000 0.04341  0.30520  0.86930  Biso   1.000  C 
  H71      1.0000 0.01190  0.26050  0.86720  Biso   1.000  H 
  H72      1.0000 0.09530  0.17450  0.86230  Biso   1.000  H 
  H73      1.0000 0.16920  0.47360  0.87820  Biso   1.000  H 
  H74      1.0000 0.08740  0.56720  0.88210  Biso   1.000  H 
  C97      1.0000 0.89978  0.61400  0.86190  Biso   1.000  C 
  H75      1.0000 0.93170  0.65500  0.85890  Biso   1.000  H 
  C98      1.0000 0.85001  0.67030  0.85870  Biso   1.000  C 
  H76      1.0000 0.84890  0.74990  0.85110  Biso   1.000  H 
  O27      1.0000 0.77121  0.89590  0.83597  Biso   1.000  O 
  H77      1.0000 0.89480  0.08860  0.91400  Biso   1.000  H 
  H78      1.0000 0.88020  0.96830  0.86510  Biso   1.000  H 
  N29      1.0000 0.85985  0.31660  0.63020  Biso   1.000  N 
  C99      1.0000 0.90644  0.25440  0.63350  Biso   1.000  C 
  C100     1.0000 0.95659  0.30520  0.63070  Biso   1.000  C 
  H79      1.0000 0.98810  0.26050  0.63280  Biso   1.000  H 
  C101     1.0000 0.95888  0.42310  0.62480  Biso   1.000  C 
  C102     1.0000 0.91169  0.48720  0.62170  Biso   1.000  C 
  C103     1.0000 0.86277  0.43030  0.62430  Biso   1.000  C 
  H80      1.0000 0.83080  0.47360  0.62180  Biso   1.000  H 
  H81      1.0000 0.91260  0.56720  0.61790  Biso   1.000  H 
  N30      1.0000 0.00902  0.48720  0.62450  Biso   1.000  N 
  N31      1.0000 0.04969  0.42960  0.62760  Biso   1.000  N 
  C104     1.0000 0.09928  0.49680  0.63040  Biso   1.000  C 
  C105     1.0000 0.14725  0.43790  0.62530  Biso   1.000  C 
  H82      1.0000 0.14740  0.35800  0.62020  Biso   1.000  H 
  C106     1.0000 0.19491  0.50130  0.62810  Biso   1.000  C 
  H83      1.0000 0.22740  0.46210  0.62590  Biso   1.000  H 
  N32      1.0000 0.19649  0.61630  0.63390  Biso   1.000  N 
  C107     1.0000 0.14999  0.67030  0.64130  Biso   1.000  C 
  C108     1.0000 0.10022  0.61400  0.63810  Biso   1.000  C 
  H84      1.0000 0.06830  0.65500  0.64110  Biso   1.000  H 
  H85      1.0000 0.15110  0.74990  0.64890  Biso   1.000  H 
  H86      1.0000 0.90470  0.17450  0.63770  Biso   1.000  H 
  C109     1.0000 0.64999  0.17030  0.64130  Biso   1.000  C 
  C110     1.0000 0.60022  0.11400  0.63810  Biso   1.000  C 
  H87      1.0000 0.56830  0.15500  0.64110  Biso   1.000  H 
  H88      1.0000 0.65110  0.24990  0.64890  Biso   1.000  H 
  H89      1.0000 0.72740  0.96210  0.62590  Biso   1.000  H 
  H90      1.0000 0.48810  0.76050  0.63280  Biso   1.000  H 
  O28      1.0000 0.22879  0.89590  0.66403  Biso   1.000  O 
  C111     1.0000 0.33088  0.49030  0.45610  Biso   1.000  C 
  H91      1.0000 0.31190  0.42150  0.47000  Biso   1.000  H 
  H92      1.0000 0.35610  0.51470  0.51560  Biso   1.000  H 
  C112     1.0000 0.36425  0.46110  0.38330  Biso   1.000  C 
  H93      1.0000 0.39480  0.41140  0.41400  Biso   1.000  H 
  H94      1.0000 0.38020  0.53170  0.36510  Biso   1.000  H 
  H95      1.0000 0.10520  0.08860  0.58600  Biso   1.000  H 
  H96      1.0000 0.11980  0.96830  0.63490  Biso   1.000  H 
  O29      1.0000 0.16205  0.06640  0.78880  Biso   1.000  O 
  O30      1.0000 0.19841  0.18090  0.69772  Biso   1.000  O 
  O31      1.0000 0.30159  0.31910  0.30228  Biso   1.000  O 
  O32      1.0000 0.33795  0.43360  0.21120  Biso   1.000  O 
