data_image0
_cell_length_a       10.284
_cell_length_b       31.388
_cell_length_c       20.904
_cell_angle_alpha    90
_cell_angle_beta     103.189
_cell_angle_gamma    90

_symmetry_space_group_name_H-M    "P 1"
_symmetry_int_tables_number       1

loop_
  _symmetry_equiv_pos_as_xyz
  'x, y, z'

loop_
  _atom_site_label
  _atom_site_occupancy
  _atom_site_fract_x
  _atom_site_fract_y
  _atom_site_fract_z
  _atom_site_thermal_displace_type
  _atom_site_B_iso_or_equiv
  _atom_site_type_symbol
  Ag1      1.0000 0.42511  0.19337  0.54063  Biso   1.000  Ag
  Ag2      1.0000 0.57489  0.19337  0.95937  Biso   1.000  Ag
  Ag3      1.0000 0.92511  0.69337  0.54063  Biso   1.000  Ag
  Ag4      1.0000 0.07489  0.69337  0.95937  Biso   1.000  Ag
  Ag5      1.0000 0.57489  0.80663  0.45937  Biso   1.000  Ag
  Ag6      1.0000 0.42511  0.80663  0.04063  Biso   1.000  Ag
  Ag7      1.0000 0.07489  0.30663  0.45937  Biso   1.000  Ag
  Ag8      1.0000 0.92511  0.30663  0.04063  Biso   1.000  Ag
  C1       1.0000 0.62600  0.06140  0.18370  Biso   1.000  C 
  C2       1.0000 0.37400  0.06140  0.31630  Biso   1.000  C 
  C3       1.0000 0.12600  0.56140  0.18370  Biso   1.000  C 
  C4       1.0000 0.87400  0.56140  0.31630  Biso   1.000  C 
  C5       1.0000 0.37400  0.93860  0.81630  Biso   1.000  C 
  C6       1.0000 0.62600  0.93860  0.68370  Biso   1.000  C 
  C7       1.0000 0.87400  0.43860  0.81630  Biso   1.000  C 
  C8       1.0000 0.12600  0.43860  0.68370  Biso   1.000  C 
  C9       1.0000 0.74240  0.07170  0.22660  Biso   1.000  C 
  C10      1.0000 0.25760  0.07170  0.27340  Biso   1.000  C 
  C11      1.0000 0.24240  0.57170  0.22660  Biso   1.000  C 
  C12      1.0000 0.75760  0.57170  0.27340  Biso   1.000  C 
  C13      1.0000 0.25760  0.92830  0.77340  Biso   1.000  C 
  C14      1.0000 0.74240  0.92830  0.72660  Biso   1.000  C 
  C15      1.0000 0.75760  0.42830  0.77340  Biso   1.000  C 
  C16      1.0000 0.24240  0.42830  0.72660  Biso   1.000  C 
  H1       1.0000 0.80730  0.05120  0.24230  Biso   1.000  H 
  H2       1.0000 0.19270  0.05120  0.25770  Biso   1.000  H 
  H3       1.0000 0.30730  0.55120  0.24230  Biso   1.000  H 
  H4       1.0000 0.69270  0.55120  0.25770  Biso   1.000  H 
  H5       1.0000 0.19270  0.94880  0.75770  Biso   1.000  H 
  H6       1.0000 0.80730  0.94880  0.74230  Biso   1.000  H 
  H7       1.0000 0.69270  0.44880  0.75770  Biso   1.000  H 
  H8       1.0000 0.30730  0.44880  0.74230  Biso   1.000  H 
  C17      1.0000 0.75960  0.11400  0.24580  Biso   1.000  C 
  C18      1.0000 0.24040  0.11400  0.25420  Biso   1.000  C 
  C19      1.0000 0.25960  0.61400  0.24580  Biso   1.000  C 
  C20      1.0000 0.74040  0.61400  0.25420  Biso   1.000  C 
  C21      1.0000 0.24040  0.88600  0.75420  Biso   1.000  C 
  C22      1.0000 0.75960  0.88600  0.74580  Biso   1.000  C 
  C23      1.0000 0.74040  0.38600  0.75420  Biso   1.000  C 
  C24      1.0000 0.25960  0.38600  0.74580  Biso   1.000  C 
  C25      1.0000 0.66520  0.14437  0.22080  Biso   1.000  C 
  C26      1.0000 0.33480  0.14437  0.27920  Biso   1.000  C 
  C27      1.0000 0.16520  0.64437  0.22080  Biso   1.000  C 
  C28      1.0000 0.83480  0.64437  0.27920  Biso   1.000  C 
  C29      1.0000 0.33480  0.85563  0.77920  Biso   1.000  C 
  C30      1.0000 0.66520  0.85563  0.72080  Biso   1.000  C 
  C31      1.0000 0.83480  0.35563  0.77920  Biso   1.000  C 
  C32      1.0000 0.16520  0.35563  0.72080  Biso   1.000  C 
  H9       1.0000 0.67770  0.17280  0.23350  Biso   1.000  H 
  H10      1.0000 0.32230  0.17280  0.26650  Biso   1.000  H 
  H11      1.0000 0.17770  0.67280  0.23350  Biso   1.000  H 
  H12      1.0000 0.82230  0.67280  0.26650  Biso   1.000  H 
  H13      1.0000 0.32230  0.82720  0.76650  Biso   1.000  H 
  H14      1.0000 0.67770  0.82720  0.73350  Biso   1.000  H 
  H15      1.0000 0.82230  0.32720  0.76650  Biso   1.000  H 
  H16      1.0000 0.17770  0.32720  0.73350  Biso   1.000  H 
  C33      1.0000 0.55200  0.13154  0.17660  Biso   1.000  C 
  C34      1.0000 0.44800  0.13154  0.32340  Biso   1.000  C 
  C35      1.0000 0.05200  0.63154  0.17660  Biso   1.000  C 
  C36      1.0000 0.94800  0.63154  0.32340  Biso   1.000  C 
  C37      1.0000 0.44800  0.86846  0.82340  Biso   1.000  C 
  C38      1.0000 0.55200  0.86846  0.67660  Biso   1.000  C 
  C39      1.0000 0.94800  0.36846  0.82340  Biso   1.000  C 
  C40      1.0000 0.05200  0.36846  0.67660  Biso   1.000  C 
  C41      1.0000 0.52870  0.08985  0.15790  Biso   1.000  C 
  C42      1.0000 0.47130  0.08985  0.34210  Biso   1.000  C 
  C43      1.0000 0.02870  0.58985  0.15790  Biso   1.000  C 
  C44      1.0000 0.97130  0.58985  0.34210  Biso   1.000  C 
  C45      1.0000 0.47130  0.91015  0.84210  Biso   1.000  C 
  C46      1.0000 0.52870  0.91015  0.65790  Biso   1.000  C 
  C47      1.0000 0.97130  0.41015  0.84210  Biso   1.000  C 
  C48      1.0000 0.02870  0.41015  0.65790  Biso   1.000  C 
  H17      1.0000 0.45020  0.08150  0.12900  Biso   1.000  H 
  H18      1.0000 0.54980  0.08150  0.37100  Biso   1.000  H 
  H19      1.0000 0.95020  0.58150  0.12900  Biso   1.000  H 
  H20      1.0000 0.04980  0.58150  0.37100  Biso   1.000  H 
  H21      1.0000 0.54980  0.91850  0.87100  Biso   1.000  H 
  H22      1.0000 0.45020  0.91850  0.62900  Biso   1.000  H 
  H23      1.0000 0.04980  0.41850  0.87100  Biso   1.000  H 
  H24      1.0000 0.95020  0.41850  0.62900  Biso   1.000  H 
  O1       1.0000 0.65490  0.98925  0.25900  Biso   1.000  O 
  O2       1.0000 0.34510  0.98925  0.24100  Biso   1.000  O 
  O3       1.0000 0.15490  0.48925  0.25900  Biso   1.000  O 
  O4       1.0000 0.84510  0.48925  0.24100  Biso   1.000  O 
  O5       1.0000 0.34510  0.01075  0.74100  Biso   1.000  O 
  O6       1.0000 0.65490  0.01075  0.75900  Biso   1.000  O 
  O7       1.0000 0.84510  0.51075  0.74100  Biso   1.000  O 
  O8       1.0000 0.15490  0.51075  0.75900  Biso   1.000  O 
  O9       1.0000 0.60480  0.01956  0.15950  Biso   1.000  O 
  O10      1.0000 0.39520  0.01956  0.34050  Biso   1.000  O 
  O11      1.0000 0.10480  0.51956  0.15950  Biso   1.000  O 
  O12      1.0000 0.89520  0.51956  0.34050  Biso   1.000  O 
  O13      1.0000 0.39520  0.98044  0.84050  Biso   1.000  O 
  O14      1.0000 0.60480  0.98044  0.65950  Biso   1.000  O 
  O15      1.0000 0.89520  0.48044  0.84050  Biso   1.000  O 
  O16      1.0000 0.10480  0.48044  0.65950  Biso   1.000  O 
  N1       1.0000 0.50400  0.87005  0.09750  Biso   1.000  N 
  N2       1.0000 0.49600  0.87005  0.40250  Biso   1.000  N 
  N3       1.0000 0.00400  0.37005  0.09750  Biso   1.000  N 
  N4       1.0000 0.99600  0.37005  0.40250  Biso   1.000  N 
  N5       1.0000 0.49600  0.12995  0.90250  Biso   1.000  N 
  N6       1.0000 0.50400  0.12995  0.59750  Biso   1.000  N 
  N7       1.0000 0.99600  0.62995  0.90250  Biso   1.000  N 
  N8       1.0000 0.00400  0.62995  0.59750  Biso   1.000  N 
  C49      1.0000 0.49250  0.90510  0.06590  Biso   1.000  C 
  C50      1.0000 0.50750  0.90510  0.43410  Biso   1.000  C 
  C51      1.0000 0.99250  0.40510  0.06590  Biso   1.000  C 
  C52      1.0000 0.00750  0.40510  0.43410  Biso   1.000  C 
  C53      1.0000 0.50750  0.09490  0.93410  Biso   1.000  C 
  C54      1.0000 0.49250  0.09490  0.56590  Biso   1.000  C 
  C55      1.0000 0.00750  0.59490  0.93410  Biso   1.000  C 
  C56      1.0000 0.99250  0.59490  0.56590  Biso   1.000  C 
  H25      1.0000 0.45800  0.90470  0.02070  Biso   1.000  H 
  H26      1.0000 0.54200  0.90470  0.47930  Biso   1.000  H 
  H27      1.0000 0.95800  0.40470  0.02070  Biso   1.000  H 
  H28      1.0000 0.04200  0.40470  0.47930  Biso   1.000  H 
  H29      1.0000 0.54200  0.09530  0.97930  Biso   1.000  H 
  H30      1.0000 0.45800  0.09530  0.52070  Biso   1.000  H 
  H31      1.0000 0.04200  0.59530  0.97930  Biso   1.000  H 
  H32      1.0000 0.95800  0.59530  0.52070  Biso   1.000  H 
  C57      1.0000 0.53120  0.94550  0.09770  Biso   1.000  C 
  C58      1.0000 0.46880  0.94550  0.40230  Biso   1.000  C 
  C59      1.0000 0.03120  0.44550  0.09770  Biso   1.000  C 
  C60      1.0000 0.96880  0.44550  0.40230  Biso   1.000  C 
  C61      1.0000 0.46880  0.05450  0.90230  Biso   1.000  C 
  C62      1.0000 0.53120  0.05450  0.59770  Biso   1.000  C 
  C63      1.0000 0.96880  0.55450  0.90230  Biso   1.000  C 
  C64      1.0000 0.03120  0.55450  0.59770  Biso   1.000  C 
  H33      1.0000 0.52250  0.97090  0.07430  Biso   1.000  H 
  H34      1.0000 0.47750  0.97090  0.42570  Biso   1.000  H 
  H35      1.0000 0.02250  0.47090  0.07430  Biso   1.000  H 
  H36      1.0000 0.97750  0.47090  0.42570  Biso   1.000  H 
  H37      1.0000 0.47750  0.02910  0.92570  Biso   1.000  H 
  H38      1.0000 0.52250  0.02910  0.57430  Biso   1.000  H 
  H39      1.0000 0.97750  0.52910  0.92570  Biso   1.000  H 
  H40      1.0000 0.02250  0.52910  0.57430  Biso   1.000  H 
  C65      1.0000 0.57960  0.94450  0.16180  Biso   1.000  C 
  C66      1.0000 0.42040  0.94450  0.33820  Biso   1.000  C 
  C67      1.0000 0.07960  0.44450  0.16180  Biso   1.000  C 
  C68      1.0000 0.92040  0.44450  0.33820  Biso   1.000  C 
  C69      1.0000 0.42040  0.05550  0.83820  Biso   1.000  C 
  C70      1.0000 0.57960  0.05550  0.66180  Biso   1.000  C 
  C71      1.0000 0.92040  0.55550  0.83820  Biso   1.000  C 
  C72      1.0000 0.07960  0.55550  0.66180  Biso   1.000  C 
  C73      1.0000 0.60320  0.90890  0.19490  Biso   1.000  C 
  C74      1.0000 0.39680  0.90890  0.30510  Biso   1.000  C 
  C75      1.0000 0.10320  0.40890  0.19490  Biso   1.000  C 
  C76      1.0000 0.89680  0.40890  0.30510  Biso   1.000  C 
  C77      1.0000 0.39680  0.09110  0.80510  Biso   1.000  C 
  C78      1.0000 0.60320  0.09110  0.69490  Biso   1.000  C 
  C79      1.0000 0.89680  0.59110  0.80510  Biso   1.000  C 
  C80      1.0000 0.10320  0.59110  0.69490  Biso   1.000  C 
  H41      1.0000 0.64960  0.90800  0.23860  Biso   1.000  H 
  H42      1.0000 0.35040  0.90800  0.26140  Biso   1.000  H 
  H43      1.0000 0.14960  0.40800  0.23860  Biso   1.000  H 
  H44      1.0000 0.85040  0.40800  0.26140  Biso   1.000  H 
  H45      1.0000 0.35040  0.09200  0.76140  Biso   1.000  H 
  H46      1.0000 0.64960  0.09200  0.73860  Biso   1.000  H 
  H47      1.0000 0.85040  0.59200  0.76140  Biso   1.000  H 
  H48      1.0000 0.14960  0.59200  0.73860  Biso   1.000  H 
  C81      1.0000 0.55380  0.87210  0.15990  Biso   1.000  C 
  C82      1.0000 0.44620  0.87210  0.34010  Biso   1.000  C 
  C83      1.0000 0.05380  0.37210  0.15990  Biso   1.000  C 
  C84      1.0000 0.94620  0.37210  0.34010  Biso   1.000  C 
  C85      1.0000 0.44620  0.12790  0.84010  Biso   1.000  C 
  C86      1.0000 0.55380  0.12790  0.65990  Biso   1.000  C 
  C87      1.0000 0.94620  0.62790  0.84010  Biso   1.000  C 
  C88      1.0000 0.05380  0.62790  0.65990  Biso   1.000  C 
  H49      1.0000 0.55710  0.84690  0.18370  Biso   1.000  H 
  H50      1.0000 0.44290  0.84690  0.31630  Biso   1.000  H 
  H51      1.0000 0.05710  0.34690  0.18370  Biso   1.000  H 
  H52      1.0000 0.94290  0.34690  0.31630  Biso   1.000  H 
  H53      1.0000 0.44290  0.15310  0.81630  Biso   1.000  H 
  H54      1.0000 0.55710  0.15310  0.68370  Biso   1.000  H 
  H55      1.0000 0.94290  0.65310  0.81630  Biso   1.000  H 
  H56      1.0000 0.05710  0.65310  0.68370  Biso   1.000  H 
  C89      1.0000 0.62080  0.98720  0.19740  Biso   1.000  C 
  C90      1.0000 0.37920  0.98720  0.30260  Biso   1.000  C 
  C91      1.0000 0.12080  0.48720  0.19740  Biso   1.000  C 
  C92      1.0000 0.87920  0.48720  0.30260  Biso   1.000  C 
  C93      1.0000 0.37920  0.01280  0.80260  Biso   1.000  C 
  C94      1.0000 0.62080  0.01280  0.69740  Biso   1.000  C 
  C95      1.0000 0.87920  0.51280  0.80260  Biso   1.000  C 
  C96      1.0000 0.12080  0.51280  0.69740  Biso   1.000  C 
  O17      1.0000 0.87750  0.12761  0.29000  Biso   1.000  O 
  O18      1.0000 0.12250  0.12761  0.21000  Biso   1.000  O 
  O19      1.0000 0.37750  0.62761  0.29000  Biso   1.000  O 
  O20      1.0000 0.62250  0.62761  0.21000  Biso   1.000  O 
  O21      1.0000 0.12250  0.87239  0.71000  Biso   1.000  O 
  O22      1.0000 0.87750  0.87239  0.79000  Biso   1.000  O 
  O23      1.0000 0.62250  0.37239  0.71000  Biso   1.000  O 
  O24      1.0000 0.37750  0.37239  0.79000  Biso   1.000  O 
  O25      1.0000 0.80710  0.09865  0.37270  Biso   1.000  O 
  O26      1.0000 0.19290  0.09865  0.12730  Biso   1.000  O 
  O27      1.0000 0.30710  0.59865  0.37270  Biso   1.000  O 
  O28      1.0000 0.69290  0.59865  0.12730  Biso   1.000  O 
  O29      1.0000 0.19290  0.90135  0.62730  Biso   1.000  O 
  O30      1.0000 0.80710  0.90135  0.87270  Biso   1.000  O 
  O31      1.0000 0.69290  0.40135  0.62730  Biso   1.000  O 
  O32      1.0000 0.30710  0.40135  0.87270  Biso   1.000  O 
  N9       1.0000 0.23420  0.16916  0.47720  Biso   1.000  N 
  N10      1.0000 0.76580  0.16916  0.02280  Biso   1.000  N 
  N11      1.0000 0.73420  0.66916  0.47720  Biso   1.000  N 
  N12      1.0000 0.26580  0.66916  0.02280  Biso   1.000  N 
  N13      1.0000 0.76580  0.83084  0.52280  Biso   1.000  N 
  N14      1.0000 0.23420  0.83084  0.97720  Biso   1.000  N 
  N15      1.0000 0.26580  0.33084  0.52280  Biso   1.000  N 
  N16      1.0000 0.73420  0.33084  0.97720  Biso   1.000  N 
  C97      1.0000 0.19970  0.18160  0.41490  Biso   1.000  C 
  C98      1.0000 0.80030  0.18160  0.08510  Biso   1.000  C 
  C99      1.0000 0.69970  0.68160  0.41490  Biso   1.000  C 
  C100     1.0000 0.30030  0.68160  0.08510  Biso   1.000  C 
  C101     1.0000 0.80030  0.81840  0.58510  Biso   1.000  C 
  C102     1.0000 0.19970  0.81840  0.91490  Biso   1.000  C 
  C103     1.0000 0.30030  0.31840  0.58510  Biso   1.000  C 
  C104     1.0000 0.69970  0.31840  0.91490  Biso   1.000  C 
  H57      1.0000 0.25170  0.20180  0.39970  Biso   1.000  H 
  H58      1.0000 0.74830  0.20180  0.10030  Biso   1.000  H 
  H59      1.0000 0.75170  0.70180  0.39970  Biso   1.000  H 
  H60      1.0000 0.24830  0.70180  0.10030  Biso   1.000  H 
  H61      1.0000 0.74830  0.79820  0.60030  Biso   1.000  H 
  H62      1.0000 0.25170  0.79820  0.89970  Biso   1.000  H 
  H63      1.0000 0.24830  0.29820  0.60030  Biso   1.000  H 
  H64      1.0000 0.75170  0.29820  0.89970  Biso   1.000  H 
  C105     1.0000 0.08960  0.16540  0.37240  Biso   1.000  C 
  C106     1.0000 0.91040  0.16540  0.12760  Biso   1.000  C 
  C107     1.0000 0.58960  0.66540  0.37240  Biso   1.000  C 
  C108     1.0000 0.41040  0.66540  0.12760  Biso   1.000  C 
  C109     1.0000 0.91040  0.83460  0.62760  Biso   1.000  C 
  C110     1.0000 0.08960  0.83460  0.87240  Biso   1.000  C 
  C111     1.0000 0.41040  0.33460  0.62760  Biso   1.000  C 
  C112     1.0000 0.58960  0.33460  0.87240  Biso   1.000  C 
  H65      1.0000 0.06800  0.17420  0.32880  Biso   1.000  H 
  H66      1.0000 0.93200  0.17420  0.17120  Biso   1.000  H 
  H67      1.0000 0.56800  0.67420  0.32880  Biso   1.000  H 
  H68      1.0000 0.43200  0.67420  0.17120  Biso   1.000  H 
  H69      1.0000 0.93200  0.82580  0.67120  Biso   1.000  H 
  H70      1.0000 0.06800  0.82580  0.82880  Biso   1.000  H 
  H71      1.0000 0.43200  0.32580  0.67120  Biso   1.000  H 
  H72      1.0000 0.56800  0.32580  0.82880  Biso   1.000  H 
  C113     1.0000 0.01180  0.13640  0.39440  Biso   1.000  C 
  C114     1.0000 0.98820  0.13640  0.10560  Biso   1.000  C 
  C115     1.0000 0.51180  0.63640  0.39440  Biso   1.000  C 
  C116     1.0000 0.48820  0.63640  0.10560  Biso   1.000  C 
  C117     1.0000 0.98820  0.86360  0.60560  Biso   1.000  C 
  C118     1.0000 0.01180  0.86360  0.89440  Biso   1.000  C 
  C119     1.0000 0.48820  0.36360  0.60560  Biso   1.000  C 
  C120     1.0000 0.51180  0.36360  0.89440  Biso   1.000  C 
  C121     1.0000 0.04760  0.12310  0.45790  Biso   1.000  C 
  C122     1.0000 0.95240  0.12310  0.04210  Biso   1.000  C 
  C123     1.0000 0.54760  0.62310  0.45790  Biso   1.000  C 
  C124     1.0000 0.45240  0.62310  0.04210  Biso   1.000  C 
  C125     1.0000 0.95240  0.87690  0.54210  Biso   1.000  C 
  C126     1.0000 0.04760  0.87690  0.95790  Biso   1.000  C 
  C127     1.0000 0.45240  0.37690  0.54210  Biso   1.000  C 
  C128     1.0000 0.54760  0.37690  0.95790  Biso   1.000  C 
  H73      1.0000 0.99800  0.10280  0.47440  Biso   1.000  H 
  H74      1.0000 0.00200  0.10280  0.02560  Biso   1.000  H 
  H75      1.0000 0.49800  0.60280  0.47440  Biso   1.000  H 
  H76      1.0000 0.50200  0.60280  0.02560  Biso   1.000  H 
  H77      1.0000 0.00200  0.89720  0.52560  Biso   1.000  H 
  H78      1.0000 0.99800  0.89720  0.97440  Biso   1.000  H 
  H79      1.0000 0.50200  0.39720  0.52560  Biso   1.000  H 
  H80      1.0000 0.49800  0.39720  0.97440  Biso   1.000  H 
  C129     1.0000 0.15900  0.14070  0.49600  Biso   1.000  C 
  C130     1.0000 0.84100  0.14070  0.00400  Biso   1.000  C 
  C131     1.0000 0.65900  0.64070  0.49600  Biso   1.000  C 
  C132     1.0000 0.34100  0.64070  0.00400  Biso   1.000  C 
  C133     1.0000 0.84100  0.85930  0.50400  Biso   1.000  C 
  C134     1.0000 0.15900  0.85930  0.99600  Biso   1.000  C 
  C135     1.0000 0.34100  0.35930  0.50400  Biso   1.000  C 
  C136     1.0000 0.65900  0.35930  0.99600  Biso   1.000  C 
  H81      1.0000 0.18370  0.13170  0.53950  Biso   1.000  H 
  H82      1.0000 0.81630  0.13170  0.96050  Biso   1.000  H 
  H83      1.0000 0.68370  0.63170  0.53950  Biso   1.000  H 
  H84      1.0000 0.31630  0.63170  0.96050  Biso   1.000  H 
  H85      1.0000 0.81630  0.86830  0.46050  Biso   1.000  H 
  H86      1.0000 0.18370  0.86830  0.03950  Biso   1.000  H 
  H87      1.0000 0.31630  0.36830  0.46050  Biso   1.000  H 
  H88      1.0000 0.68370  0.36830  0.03950  Biso   1.000  H 
  C137     1.0000 0.88790  0.11780  0.35300  Biso   1.000  C 
  C138     1.0000 0.11210  0.11780  0.14700  Biso   1.000  C 
  C139     1.0000 0.38790  0.61780  0.35300  Biso   1.000  C 
  C140     1.0000 0.61210  0.61780  0.14700  Biso   1.000  C 
  C141     1.0000 0.11210  0.88220  0.64700  Biso   1.000  C 
  C142     1.0000 0.88790  0.88220  0.85300  Biso   1.000  C 
  C143     1.0000 0.61210  0.38220  0.64700  Biso   1.000  C 
  C144     1.0000 0.38790  0.38220  0.85300  Biso   1.000  C 
  O33      1.0000 0.43610  0.15043  0.05030  Biso   1.000  O 
  O34      1.0000 0.56390  0.15043  0.44970  Biso   1.000  O 
  O35      1.0000 0.93610  0.65043  0.05030  Biso   1.000  O 
  O36      1.0000 0.06390  0.65043  0.44970  Biso   1.000  O 
  O37      1.0000 0.56390  0.84957  0.94970  Biso   1.000  O 
  O38      1.0000 0.43610  0.84957  0.55030  Biso   1.000  O 
  O39      1.0000 0.06390  0.34957  0.94970  Biso   1.000  O 
  O40      1.0000 0.93610  0.34957  0.55030  Biso   1.000  O 
  O41      1.0000 0.45260  0.16256  0.15650  Biso   1.000  O 
  O42      1.0000 0.54740  0.16256  0.34350  Biso   1.000  O 
  O43      1.0000 0.95260  0.66256  0.15650  Biso   1.000  O 
  O44      1.0000 0.04740  0.66256  0.34350  Biso   1.000  O 
  O45      1.0000 0.54740  0.83744  0.84350  Biso   1.000  O 
  O46      1.0000 0.45260  0.83744  0.65650  Biso   1.000  O 
  O47      1.0000 0.04740  0.33744  0.84350  Biso   1.000  O 
  O48      1.0000 0.95260  0.33744  0.65650  Biso   1.000  O 
  N17      1.0000 0.07150  0.25523  0.05940  Biso   1.000  N 
  N18      1.0000 0.92850  0.25523  0.44060  Biso   1.000  N 
  N19      1.0000 0.57150  0.75523  0.05940  Biso   1.000  N 
  N20      1.0000 0.42850  0.75523  0.44060  Biso   1.000  N 
  N21      1.0000 0.92850  0.74477  0.94060  Biso   1.000  N 
  N22      1.0000 0.07150  0.74477  0.55940  Biso   1.000  N 
  N23      1.0000 0.42850  0.24477  0.94060  Biso   1.000  N 
  N24      1.0000 0.57150  0.24477  0.55940  Biso   1.000  N 
  C145     1.0000 0.16340  0.25570  0.11730  Biso   1.000  C 
  C146     1.0000 0.83660  0.25570  0.38270  Biso   1.000  C 
  C147     1.0000 0.66340  0.75570  0.11730  Biso   1.000  C 
  C148     1.0000 0.33660  0.75570  0.38270  Biso   1.000  C 
  C149     1.0000 0.83660  0.74430  0.88270  Biso   1.000  C 
  C150     1.0000 0.16340  0.74430  0.61730  Biso   1.000  C 
  C151     1.0000 0.33660  0.24430  0.88270  Biso   1.000  C 
  C152     1.0000 0.66340  0.24430  0.61730  Biso   1.000  C 
  H89      1.0000 0.15340  0.27510  0.14950  Biso   1.000  H 
  H90      1.0000 0.84660  0.27510  0.35050  Biso   1.000  H 
  H91      1.0000 0.65340  0.77510  0.14950  Biso   1.000  H 
  H92      1.0000 0.34660  0.77510  0.35050  Biso   1.000  H 
  H93      1.0000 0.84660  0.72490  0.85050  Biso   1.000  H 
  H94      1.0000 0.15340  0.72490  0.64950  Biso   1.000  H 
  H95      1.0000 0.34660  0.22490  0.85050  Biso   1.000  H 
  H96      1.0000 0.65340  0.22490  0.64950  Biso   1.000  H 
  C153     1.0000 0.26870  0.22895  0.12990  Biso   1.000  C 
  C154     1.0000 0.73130  0.22895  0.37010  Biso   1.000  C 
  C155     1.0000 0.76870  0.72895  0.12990  Biso   1.000  C 
  C156     1.0000 0.23130  0.72895  0.37010  Biso   1.000  C 
  C157     1.0000 0.73130  0.77105  0.87010  Biso   1.000  C 
  C158     1.0000 0.26870  0.77105  0.62990  Biso   1.000  C 
  C159     1.0000 0.23130  0.27105  0.87010  Biso   1.000  C 
  C160     1.0000 0.76870  0.27105  0.62990  Biso   1.000  C 
  H97      1.0000 0.33000  0.23030  0.17020  Biso   1.000  H 
  H98      1.0000 0.67000  0.23030  0.32980  Biso   1.000  H 
  H99      1.0000 0.83000  0.73030  0.17020  Biso   1.000  H 
  H100     1.0000 0.17000  0.73030  0.32980  Biso   1.000  H 
  H101     1.0000 0.67000  0.76970  0.82980  Biso   1.000  H 
  H102     1.0000 0.33000  0.76970  0.67020  Biso   1.000  H 
  H103     1.0000 0.17000  0.26970  0.82980  Biso   1.000  H 
  H104     1.0000 0.83000  0.26970  0.67020  Biso   1.000  H 
  C161     1.0000 0.28600  0.19980  0.08380  Biso   1.000  C 
  C162     1.0000 0.71400  0.19980  0.41620  Biso   1.000  C 
  C163     1.0000 0.78600  0.69980  0.08380  Biso   1.000  C 
  C164     1.0000 0.21400  0.69980  0.41620  Biso   1.000  C 
  C165     1.0000 0.71400  0.80020  0.91620  Biso   1.000  C 
  C166     1.0000 0.28600  0.80020  0.58380  Biso   1.000  C 
  C167     1.0000 0.21400  0.30020  0.91620  Biso   1.000  C 
  C168     1.0000 0.78600  0.30020  0.58380  Biso   1.000  C 
  C169     1.0000 0.19240  0.19883  0.02390  Biso   1.000  C 
  C170     1.0000 0.80760  0.19883  0.47610  Biso   1.000  C 
  C171     1.0000 0.69240  0.69883  0.02390  Biso   1.000  C 
  C172     1.0000 0.30760  0.69883  0.47610  Biso   1.000  C 
  C173     1.0000 0.80760  0.80117  0.97610  Biso   1.000  C 
  C174     1.0000 0.19240  0.80117  0.52390  Biso   1.000  C 
  C175     1.0000 0.30760  0.30117  0.97610  Biso   1.000  C 
  C176     1.0000 0.69240  0.30117  0.52390  Biso   1.000  C 
  H105     1.0000 0.19990  0.17970  0.99100  Biso   1.000  H 
  H106     1.0000 0.80010  0.17970  0.50900  Biso   1.000  H 
  H107     1.0000 0.69990  0.67970  0.99100  Biso   1.000  H 
  H108     1.0000 0.30010  0.67970  0.50900  Biso   1.000  H 
  H109     1.0000 0.80010  0.82030  0.00900  Biso   1.000  H 
  H110     1.0000 0.19990  0.82030  0.49100  Biso   1.000  H 
  H111     1.0000 0.30010  0.32030  0.00900  Biso   1.000  H 
  H112     1.0000 0.69990  0.32030  0.49100  Biso   1.000  H 
  C177     1.0000 0.08950  0.22722  0.01570  Biso   1.000  C 
  C178     1.0000 0.91050  0.22722  0.48430  Biso   1.000  C 
  C179     1.0000 0.58950  0.72722  0.01570  Biso   1.000  C 
  C180     1.0000 0.41050  0.72722  0.48430  Biso   1.000  C 
  C181     1.0000 0.91050  0.77278  0.98430  Biso   1.000  C 
  C182     1.0000 0.08950  0.77278  0.51570  Biso   1.000  C 
  C183     1.0000 0.41050  0.27278  0.98430  Biso   1.000  C 
  C184     1.0000 0.58950  0.27278  0.51570  Biso   1.000  C 
  H113     1.0000 0.02700  0.22660  0.97580  Biso   1.000  H 
  H114     1.0000 0.97300  0.22660  0.52420  Biso   1.000  H 
  H115     1.0000 0.52700  0.72660  0.97580  Biso   1.000  H 
  H116     1.0000 0.47300  0.72660  0.52420  Biso   1.000  H 
  H117     1.0000 0.97300  0.77340  0.02420  Biso   1.000  H 
  H118     1.0000 0.02700  0.77340  0.47580  Biso   1.000  H 
  H119     1.0000 0.47300  0.27340  0.02420  Biso   1.000  H 
  H120     1.0000 0.52700  0.27340  0.47580  Biso   1.000  H 
  C185     1.0000 0.39610  0.16840  0.09130  Biso   1.000  C 
  C186     1.0000 0.60390  0.16840  0.40870  Biso   1.000  C 
  C187     1.0000 0.89610  0.66840  0.09130  Biso   1.000  C 
  C188     1.0000 0.10390  0.66840  0.40870  Biso   1.000  C 
  C189     1.0000 0.60390  0.83160  0.90870  Biso   1.000  C 
  C190     1.0000 0.39610  0.83160  0.59130  Biso   1.000  C 
  C191     1.0000 0.10390  0.33160  0.90870  Biso   1.000  C 
  C192     1.0000 0.89610  0.33160  0.59130  Biso   1.000  C 
