data_image0
_cell_length_a       9.761
_cell_length_b       10.917
_cell_length_c       16.024
_cell_angle_alpha    83.46
_cell_angle_beta     89.87
_cell_angle_gamma    72.1

_symmetry_space_group_name_H-M    "P 1"
_symmetry_int_tables_number       1

loop_
  _symmetry_equiv_pos_as_xyz
  'x, y, z'

loop_
  _atom_site_label
  _atom_site_occupancy
  _atom_site_fract_x
  _atom_site_fract_y
  _atom_site_fract_z
  _atom_site_thermal_displace_type
  _atom_site_B_iso_or_equiv
  _atom_site_type_symbol
  Cu1      1.0000 0.09939  0.03661  0.55796  Biso   1.000  Cu
  N1       1.0000 0.25420  0.10760  0.51220  Biso   1.000  N 
  C1       1.0000 0.31860  0.08430  0.43970  Biso   1.000  C 
  H1       1.0000 0.29400  0.03490  0.40120  Biso   1.000  H 
  N2       1.0000 0.42300  0.14010  0.42840  Biso   1.000  N 
  C2       1.0000 0.51480  0.13330  0.35470  Biso   1.000  C 
  C3       1.0000 0.45180  0.25110  0.28900  Biso   1.000  C 
  H2       1.0000 0.35750  0.25070  0.26850  Biso   1.000  H 
  H3       1.0000 0.43780  0.33070  0.31530  Biso   1.000  H 
  C4       1.0000 0.55190  0.25050  0.21420  Biso   1.000  C 
  C5       1.0000 0.49120  0.37050  0.15230  Biso   1.000  C 
  H4       1.0000 0.39280  0.37740  0.13470  Biso   1.000  H 
  H5       1.0000 0.48780  0.44770  0.17910  Biso   1.000  H 
  N3       1.0000 0.58190  0.36390  0.07820  Biso   1.000  N 
  C6       1.0000 0.69550  0.40760  0.06760  Biso   1.000  C 
  H6       1.0000 0.73110  0.44550  0.10900  Biso   1.000  H 
  N4       1.0000 0.75190  0.39250  0.99420  Biso   1.000  N 
  C7       1.0000 0.66920  0.33180  0.95450  Biso   1.000  C 
  H7       1.0000 0.68380  0.30590  0.90030  Biso   1.000  H 
  C8       1.0000 0.56560  0.31600  0.00520  Biso   1.000  C 
  H8       1.0000 0.49440  0.27860  0.99280  Biso   1.000  H 
  Cu2      1.0000 0.91540  0.45991  0.94909  Biso   1.000  Cu
  N5       1.0000 0.93060  0.44310  0.82430  Biso   1.000  N 
  C9       1.0000 0.91280  0.52680  0.75810  Biso   1.000  C 
  C10      1.0000 0.94520  0.32940  0.79470  Biso   1.000  C 
  C11      1.0000 0.93190  0.34150  0.71150  Biso   1.000  C 
  H9       1.0000 0.93540  0.27630  0.67730  Biso   1.000  H 
  N6       1.0000 0.91150  0.47230  0.68630  Biso   1.000  N 
  C12      1.0000 0.89160  0.53470  0.59930  Biso   1.000  C 
  H10      1.0000 0.80180  0.52930  0.57510  Biso   1.000  H 
  H11      1.0000 0.88300  0.62660  0.59880  Biso   1.000  H 
  C13      1.0000 0.01420  0.47280  0.54590  Biso   1.000  C 
  H12      1.0000 0.02990  0.37910  0.55140  Biso   1.000  H 
  H13      1.0000 0.10220  0.48690  0.56620  Biso   1.000  H 
  C14      1.0000 0.98580  0.52720  0.45410  Biso   1.000  C 
  H14      1.0000 0.89780  0.51310  0.43380  Biso   1.000  H 
  H15      1.0000 0.97010  0.62090  0.44860  Biso   1.000  H 
  C15      1.0000 0.10840  0.46530  0.40070  Biso   1.000  C 
  H16      1.0000 0.11700  0.37340  0.40120  Biso   1.000  H 
  H17      1.0000 0.19820  0.47070  0.42490  Biso   1.000  H 
  N7       1.0000 0.08850  0.52770  0.31370  Biso   1.000  N 
  C16      1.0000 0.08720  0.47320  0.24190  Biso   1.000  C 
  H18      1.0000 0.09800  0.38490  0.24040  Biso   1.000  H 
  C17      1.0000 0.05480  0.67060  0.20530  Biso   1.000  C 
  H19      1.0000 0.03720  0.74990  0.17080  Biso   1.000  H 
  C18      1.0000 0.06810  0.65850  0.28850  Biso   1.000  C 
  H20      1.0000 0.06460  0.72370  0.32270  Biso   1.000  H 
  N8       1.0000 0.06940  0.55690  0.17570  Biso   1.000  N 
  Cu3      1.0000 0.08460  0.54009  0.05091  Biso   1.000  Cu
  I1       1.0000 0.16147  0.29505  0.02156  Biso   1.000  I 
  N9       1.0000 0.24810  0.60750  0.00580  Biso   1.000  N 
  C19      1.0000 0.33080  0.66820  0.04550  Biso   1.000  C 
  H21      1.0000 0.31620  0.69410  0.09970  Biso   1.000  H 
  C20      1.0000 0.43440  0.68400  0.99480  Biso   1.000  C 
  H22      1.0000 0.50560  0.72140  0.00720  Biso   1.000  H 
  N10      1.0000 0.41810  0.63610  0.92180  Biso   1.000  N 
  C21      1.0000 0.30450  0.59240  0.93240  Biso   1.000  C 
  H23      1.0000 0.26890  0.55450  0.89100  Biso   1.000  H 
  C22      1.0000 0.50880  0.62950  0.84770  Biso   1.000  C 
  H24      1.0000 0.51220  0.55230  0.82090  Biso   1.000  H 
  H25      1.0000 0.60720  0.62260  0.86530  Biso   1.000  H 
  C23      1.0000 0.44810  0.74950  0.78580  Biso   1.000  C 
  H26      1.0000 0.35240  0.75280  0.76510  Biso   1.000  H 
  H27      1.0000 0.43770  0.82690  0.81390  Biso   1.000  H 
  C24      1.0000 0.54820  0.74890  0.71100  Biso   1.000  C 
  H28      1.0000 0.56220  0.66930  0.68470  Biso   1.000  H 
  H29      1.0000 0.64250  0.74930  0.73150  Biso   1.000  H 
  C25      1.0000 0.48520  0.86670  0.64530  Biso   1.000  C 
  H30      1.0000 0.38820  0.86980  0.62750  Biso   1.000  H 
  H31      1.0000 0.47780  0.94630  0.67030  Biso   1.000  H 
  N11      1.0000 0.57700  0.85990  0.57160  Biso   1.000  N 
  C26      1.0000 0.68140  0.91570  0.56030  Biso   1.000  C 
  H32      1.0000 0.70600  0.96510  0.59880  Biso   1.000  H 
  N12      1.0000 0.74580  0.89240  0.48780  Biso   1.000  N 
  C27      1.0000 0.67830  0.81540  0.45320  Biso   1.000  C 
  H33      1.0000 0.70090  0.78110  0.40190  Biso   1.000  H 
  C28      1.0000 0.57410  0.79660  0.50480  Biso   1.000  C 
  H34      1.0000 0.51180  0.74850  0.49550  Biso   1.000  H 
  Cu4      1.0000 0.90061  0.96339  0.44204  Biso   1.000  Cu
  N13      1.0000 0.91560  0.02440  0.32020  Biso   1.000  N 
  C29      1.0000 0.97240  0.12330  0.29310  Biso   1.000  C 
  C30      1.0000 0.97010  0.14080  0.20770  Biso   1.000  C 
  H35      1.0000 0.00400  0.20040  0.17350  Biso   1.000  H 
  N14      1.0000 0.90850  0.05430  0.18150  Biso   1.000  N 
  C31      1.0000 0.88190  0.04020  0.09320  Biso   1.000  C 
  H36      1.0000 0.82240  0.12410  0.06490  Biso   1.000  H 
  C32      1.0000 0.01460  0.99540  0.04710  Biso   1.000  C 
  H37      1.0000 0.06570  0.90510  0.06870  Biso   1.000  H 
  H38      1.0000 0.07720  0.04760  0.05720  Biso   1.000  H 
  C33      1.0000 0.98540  0.00460  0.95290  Biso   1.000  C 
  H39      1.0000 0.93430  0.09490  0.93130  Biso   1.000  H 
  C34      1.0000 0.11810  0.95980  0.90680  Biso   1.000  C 
  H40      1.0000 0.17760  0.87590  0.93510  Biso   1.000  H 
  H41      1.0000 0.17240  0.02150  0.90850  Biso   1.000  H 
  N15      1.0000 0.09150  0.94570  0.81850  Biso   1.000  N 
  C35      1.0000 0.02990  0.85920  0.79230  Biso   1.000  C 
  C36      1.0000 0.02760  0.87670  0.70690  Biso   1.000  C 
  N16      1.0000 0.08440  0.97560  0.67980  Biso   1.000  N 
  C37      1.0000 0.12180  0.01210  0.74790  Biso   1.000  C 
  H42      1.0000 0.16550  0.07770  0.74830  Biso   1.000  H 
  H43      1.0000 0.99270  0.82890  0.67160  Biso   1.000  H 
  H44      1.0000 0.99600  0.79960  0.82650  Biso   1.000  H 
  H45      1.0000 0.92280  0.95240  0.94280  Biso   1.000  H 
  H46      1.0000 0.82760  0.97850  0.09150  Biso   1.000  H 
  C38      1.0000 0.87820  0.98790  0.25210  Biso   1.000  C 
  H47      1.0000 0.83450  0.92230  0.25170  Biso   1.000  H 
  H48      1.0000 0.00730  0.17110  0.32840  Biso   1.000  H 
  I2       1.0000 0.83850  0.20053  0.50532  Biso   1.000  I 
  I3       1.0000 0.16150  0.79947  0.49468  Biso   1.000  I 
  I4       1.0000 0.83853  0.70495  0.97844  Biso   1.000  I 
  H49      1.0000 0.96280  0.25010  0.82920  Biso   1.000  H 
  H50      1.0000 0.90200  0.61510  0.75960  Biso   1.000  H 
  H51      1.0000 0.56230  0.17310  0.18610  Biso   1.000  H 
  H52      1.0000 0.64760  0.24720  0.23490  Biso   1.000  H 
  H53      1.0000 0.52220  0.05370  0.32970  Biso   1.000  H 
  H54      1.0000 0.61180  0.13020  0.37250  Biso   1.000  H 
  C39      1.0000 0.42590  0.20340  0.49520  Biso   1.000  C 
  H55      1.0000 0.48820  0.25150  0.50450  Biso   1.000  H 
  C40      1.0000 0.32170  0.18460  0.54680  Biso   1.000  C 
  H56      1.0000 0.29910  0.21890  0.59810  Biso   1.000  H 
