data_image0
_cell_length_a       25.851
_cell_length_b       25.851
_cell_length_c       6.706
_cell_angle_alpha    90
_cell_angle_beta     90
_cell_angle_gamma    120

_symmetry_space_group_name_H-M    "P 1"
_symmetry_int_tables_number       1

loop_
  _symmetry_equiv_pos_as_xyz
  'x, y, z'

loop_
  _atom_site_label
  _atom_site_occupancy
  _atom_site_fract_x
  _atom_site_fract_y
  _atom_site_fract_z
  _atom_site_thermal_displace_type
  _atom_site_B_iso_or_equiv
  _atom_site_type_symbol
  C1       1.0000 0.01630  0.59190  0.73300  Biso   1.000  C 
  O1       1.0000 0.03330  0.59270  0.56100  Biso   1.000  O 
  Zn1      1.0000 0.02868  0.64672  0.35633  Biso   1.000  Zn
  Zn2      1.0000 0.01994  0.71529  0.68967  Biso   1.000  Zn
  Zn3      1.0000 0.95138  0.63799  0.02300  Biso   1.000  Zn
  O2       1.0000 0.03617  0.70153  0.11733  Biso   1.000  O 
  C2       1.0000 0.07477  0.75773  0.06633  Biso   1.000  C 
  C3       1.0000 0.12097  0.79413  0.21733  Biso   1.000  C 
  C4       1.0000 0.12317  0.77833  0.40733  Biso   1.000  C 
  O3       1.0000 0.07977  0.72603  0.48643  Biso   1.000  O 
  C5       1.0000 0.16837  0.81723  0.52833  Biso   1.000  C 
  H1       1.0000 0.17037  0.80763  0.66073  Biso   1.000  H 
  C6       1.0000 0.21237  0.87253  0.44933  Biso   1.000  C 
  C7       1.0000 0.21017  0.88833  0.25933  Biso   1.000  C 
  C8       1.0000 0.16497  0.84943  0.13833  Biso   1.000  C 
  H2       1.0000 0.16297  0.85903  0.00593  Biso   1.000  H 
  O4       1.0000 0.25357  0.94063  0.18023  Biso   1.000  O 
  Zn4      1.0000 0.30466  0.01994  0.31033  Biso   1.000  Zn
  O5       1.0000 0.36820  0.99870  0.21600  Biso   1.000  O 
  C9       1.0000 0.42440  0.01630  0.26700  Biso   1.000  C 
  O6       1.0000 0.44060  0.03330  0.43900  Biso   1.000  O 
  Zn5      1.0000 0.38195  0.02868  0.64367  Biso   1.000  Zn
  O7       1.0000 0.33463  0.03617  0.88267  Biso   1.000  O 
  C10      1.0000 0.31703  0.07477  0.93367  Biso   1.000  C 
  C11      1.0000 0.32683  0.12097  0.78267  Biso   1.000  C 
  C12      1.0000 0.31553  0.16497  0.86167  Biso   1.000  C 
  H3       1.0000 0.30393  0.16297  0.99407  Biso   1.000  H 
  C13      1.0000 0.32183  0.21017  0.74067  Biso   1.000  C 
  O8       1.0000 0.31293  0.25357  0.81977  Biso   1.000  O 
  Zn6      1.0000 0.28471  0.30466  0.68967  Biso   1.000  Zn
  Zn7      1.0000 0.36201  0.31339  0.02300  Biso   1.000  Zn
  Zn8      1.0000 0.35328  0.38195  0.35633  Biso   1.000  Zn
  O9       1.0000 0.29847  0.33463  0.11733  Biso   1.000  O 
  C14      1.0000 0.24227  0.31703  0.06633  Biso   1.000  C 
  C15      1.0000 0.20587  0.32683  0.21733  Biso   1.000  C 
  C16      1.0000 0.15057  0.31553  0.13833  Biso   1.000  C 
  H4       1.0000 0.14097  0.30393  0.00593  Biso   1.000  H 
  C17      1.0000 0.11167  0.32183  0.25933  Biso   1.000  C 
  O10      1.0000 0.05937  0.31293  0.18023  Biso   1.000  O 
  Zn9      1.0000 0.04862  0.36201  0.97700  Biso   1.000  Zn
  Zn10     1.0000 0.98006  0.28471  0.31033  Biso   1.000  Zn
  O11      1.0000 0.00130  0.36950  0.21600  Biso   1.000  O 
  C18      1.0000 0.98370  0.40810  0.26700  Biso   1.000  C 
  C19      1.0000 0.99350  0.45430  0.11600  Biso   1.000  C 
  C20      1.0000 0.98220  0.49830  0.19500  Biso   1.000  C 
  H5       1.0000 0.97060  0.49630  0.32740  Biso   1.000  H 
  C21      1.0000 0.98850  0.54350  0.07400  Biso   1.000  C 
  O12      1.0000 0.97960  0.58690  0.15310  Biso   1.000  O 
  C22      1.0000 0.00650  0.54570  0.88400  Biso   1.000  C 
  C23      1.0000 0.01780  0.50170  0.80500  Biso   1.000  C 
  H6       1.0000 0.02940  0.50370  0.67260  Biso   1.000  H 
  C24      1.0000 0.01150  0.45650  0.92600  Biso   1.000  C 
  O13      1.0000 0.02040  0.41310  0.84690  Biso   1.000  O 
  Zn11     1.0000 0.97132  0.35328  0.64367  Biso   1.000  Zn
  O14      1.0000 0.03487  0.33203  0.54933  Biso   1.000  O 
  C25      1.0000 0.09107  0.34963  0.60033  Biso   1.000  C 
  O15      1.0000 0.10727  0.36663  0.77233  Biso   1.000  O 
  C26      1.0000 0.12747  0.33983  0.44933  Biso   1.000  C 
  C27      1.0000 0.18277  0.35113  0.52833  Biso   1.000  C 
  H7       1.0000 0.19237  0.36273  0.66073  Biso   1.000  H 
  C28      1.0000 0.22167  0.34483  0.40733  Biso   1.000  C 
  O16      1.0000 0.27397  0.35373  0.48643  Biso   1.000  O 
  O17      1.0000 0.96383  0.29847  0.88267  Biso   1.000  O 
  C29      1.0000 0.92523  0.24227  0.93367  Biso   1.000  C 
  C30      1.0000 0.87903  0.20587  0.78267  Biso   1.000  C 
  C31      1.0000 0.83503  0.15057  0.86167  Biso   1.000  C 
  H8       1.0000 0.83703  0.14097  0.99407  Biso   1.000  H 
  C32      1.0000 0.78983  0.11167  0.74067  Biso   1.000  C 
  O18      1.0000 0.74643  0.05937  0.81977  Biso   1.000  O 
  Zn12     1.0000 0.68661  0.04862  0.02300  Biso   1.000  Zn
  O19      1.0000 0.63180  0.00130  0.78400  Biso   1.000  O 
  C33      1.0000 0.57560  0.98370  0.73300  Biso   1.000  C 
  C34      1.0000 0.53920  0.99350  0.88400  Biso   1.000  C 
  C35      1.0000 0.48390  0.98220  0.80500  Biso   1.000  C 
  H9       1.0000 0.47430  0.97060  0.67260  Biso   1.000  H 
  C36      1.0000 0.44500  0.98850  0.92600  Biso   1.000  C 
  O20      1.0000 0.39270  0.97960  0.84690  Biso   1.000  O 
  Zn13     1.0000 0.31339  0.95138  0.97700  Biso   1.000  Zn
  O21      1.0000 0.25937  0.89273  0.77233  Biso   1.000  O 
  C37      1.0000 0.25857  0.90893  0.60033  Biso   1.000  C 
  O22      1.0000 0.29717  0.96513  0.54933  Biso   1.000  O 
  C38      1.0000 0.46080  0.00650  0.11600  Biso   1.000  C 
  C39      1.0000 0.51610  0.01780  0.19500  Biso   1.000  C 
  H10      1.0000 0.52570  0.02940  0.32740  Biso   1.000  H 
  C40      1.0000 0.55500  0.01150  0.07400  Biso   1.000  C 
  O23      1.0000 0.60730  0.02040  0.15310  Biso   1.000  O 
  Zn14     1.0000 0.61805  0.97132  0.35633  Biso   1.000  Zn
  Zn15     1.0000 0.69534  0.98006  0.68967  Biso   1.000  Zn
  O24      1.0000 0.70283  0.03487  0.45067  Biso   1.000  O 
  C41      1.0000 0.74143  0.09107  0.39967  Biso   1.000  C 
  O25      1.0000 0.74063  0.10727  0.22767  Biso   1.000  O 
  C42      1.0000 0.78763  0.12747  0.55067  Biso   1.000  C 
  C43      1.0000 0.83163  0.18277  0.47167  Biso   1.000  C 
  H11      1.0000 0.82963  0.19237  0.33927  Biso   1.000  H 
  C44      1.0000 0.87683  0.22167  0.59267  Biso   1.000  C 
  O26      1.0000 0.92023  0.27397  0.51357  Biso   1.000  O 
  O27      1.0000 0.69997  0.92603  0.89433  Biso   1.000  O 
  C45      1.0000 0.68297  0.92523  0.06633  Biso   1.000  C 
  O28      1.0000 0.66537  0.96383  0.11733  Biso   1.000  O 
  C46      1.0000 0.67317  0.87903  0.21733  Biso   1.000  C 
  C47      1.0000 0.65517  0.87683  0.40733  Biso   1.000  C 
  O29      1.0000 0.64627  0.92023  0.48643  Biso   1.000  O 
  C48      1.0000 0.64887  0.83163  0.52833  Biso   1.000  C 
  H12      1.0000 0.63727  0.82963  0.66073  Biso   1.000  H 
  C49      1.0000 0.66017  0.78763  0.44933  Biso   1.000  C 
  C50      1.0000 0.67817  0.78983  0.25933  Biso   1.000  C 
  C51      1.0000 0.68447  0.83503  0.13833  Biso   1.000  C 
  H13      1.0000 0.69607  0.83703  0.00593  Biso   1.000  H 
  O30      1.0000 0.68707  0.74643  0.18023  Biso   1.000  O 
  Zn16     1.0000 0.71529  0.69534  0.31033  Biso   1.000  Zn
  O31      1.0000 0.63050  0.63180  0.21600  Biso   1.000  O 
  C52      1.0000 0.59190  0.57560  0.26700  Biso   1.000  C 
  C53      1.0000 0.54570  0.53920  0.11600  Biso   1.000  C 
  C54      1.0000 0.50170  0.48390  0.19500  Biso   1.000  C 
  H14      1.0000 0.50370  0.47430  0.32740  Biso   1.000  H 
  C55      1.0000 0.45650  0.44500  0.07400  Biso   1.000  C 
  O32      1.0000 0.41310  0.39270  0.15310  Biso   1.000  O 
  C56      1.0000 0.45430  0.46080  0.88400  Biso   1.000  C 
  C57      1.0000 0.49830  0.51610  0.80500  Biso   1.000  C 
  H15      1.0000 0.49630  0.52570  0.67260  Biso   1.000  H 
  C58      1.0000 0.54350  0.55500  0.92600  Biso   1.000  C 
  O33      1.0000 0.58690  0.60730  0.84690  Biso   1.000  O 
  Zn17     1.0000 0.64672  0.61805  0.64367  Biso   1.000  Zn
  O34      1.0000 0.70153  0.66537  0.88267  Biso   1.000  O 
  Zn18     1.0000 0.63799  0.68661  0.97700  Biso   1.000  Zn
  O35      1.0000 0.63337  0.74063  0.77233  Biso   1.000  O 
  C59      1.0000 0.65037  0.74143  0.60033  Biso   1.000  C 
  O36      1.0000 0.66797  0.70283  0.54933  Biso   1.000  O 
  C60      1.0000 0.75773  0.68297  0.93367  Biso   1.000  C 
  C61      1.0000 0.79413  0.67317  0.78267  Biso   1.000  C 
  C62      1.0000 0.77833  0.65517  0.59267  Biso   1.000  C 
  C63      1.0000 0.81723  0.64887  0.47167  Biso   1.000  C 
  H16      1.0000 0.80763  0.63727  0.33927  Biso   1.000  H 
  C64      1.0000 0.87253  0.66017  0.55067  Biso   1.000  C 
  C65      1.0000 0.88833  0.67817  0.74067  Biso   1.000  C 
  C66      1.0000 0.84943  0.68447  0.86167  Biso   1.000  C 
  H17      1.0000 0.85903  0.69607  0.99407  Biso   1.000  H 
  O37      1.0000 0.94063  0.68707  0.81977  Biso   1.000  O 
  C67      1.0000 0.90893  0.65037  0.39967  Biso   1.000  C 
  O38      1.0000 0.89273  0.63337  0.22767  Biso   1.000  O 
  O39      1.0000 0.96513  0.66797  0.45067  Biso   1.000  O 
  O40      1.0000 0.72603  0.64627  0.51357  Biso   1.000  O 
  O41      1.0000 0.77393  0.69997  0.10567  Biso   1.000  O 
  O42      1.0000 0.59270  0.55940  0.43900  Biso   1.000  O 
  C68      1.0000 0.40810  0.42440  0.73300  Biso   1.000  C 
  O43      1.0000 0.36950  0.36820  0.78400  Biso   1.000  O 
  O44      1.0000 0.40730  0.44060  0.56100  Biso   1.000  O 
  O45      1.0000 0.55940  0.96670  0.56100  Biso   1.000  O 
  O46      1.0000 0.92603  0.22607  0.10567  Biso   1.000  O 
  O47      1.0000 0.96670  0.40730  0.43900  Biso   1.000  O 
  O48      1.0000 0.22607  0.30003  0.89433  Biso   1.000  O 
  O49      1.0000 0.33203  0.29717  0.45067  Biso   1.000  O 
  C69      1.0000 0.34963  0.25857  0.39967  Biso   1.000  C 
  C70      1.0000 0.33983  0.21237  0.55067  Biso   1.000  C 
  C71      1.0000 0.35113  0.16837  0.47167  Biso   1.000  C 
  H18      1.0000 0.36273  0.17037  0.33927  Biso   1.000  H 
  C72      1.0000 0.34483  0.12317  0.59267  Biso   1.000  C 
  O50      1.0000 0.35373  0.07977  0.51357  Biso   1.000  O 
  O51      1.0000 0.36663  0.25937  0.22767  Biso   1.000  O 
  O52      1.0000 0.30003  0.07397  0.10567  Biso   1.000  O 
  O53      1.0000 0.07397  0.77393  0.89433  Biso   1.000  O 
  O54      1.0000 0.99870  0.63050  0.78400  Biso   1.000  O 
