data_image0
_cell_length_a       25.9389
_cell_length_b       25.9389
_cell_length_c       6.83793
_cell_angle_alpha    90
_cell_angle_beta     90
_cell_angle_gamma    120

_symmetry_space_group_name_H-M    "P 1"
_symmetry_int_tables_number       1

loop_
  _symmetry_equiv_pos_as_xyz
  'x, y, z'

loop_
  _atom_site_label
  _atom_site_occupancy
  _atom_site_fract_x
  _atom_site_fract_y
  _atom_site_fract_z
  _atom_site_thermal_displace_type
  _atom_site_B_iso_or_equiv
  _atom_site_type_symbol
  C1       1.0000 0.01020  0.50070  0.80600  Biso   1.000  C 
  C2       1.0000 0.00780  0.45440  0.92500  Biso   1.000  C 
  O1       1.0000 0.02130  0.41120  0.84560  Biso   1.000  O 
  Zn1      1.0000 0.04764  0.36068  0.97003  Biso   1.000  Zn
  O2       1.0000 0.97043  0.29827  0.86977  Biso   1.000  O 
  Zn2      1.0000 0.97265  0.35362  0.63670  Biso   1.000  Zn
  Zn3      1.0000 0.97971  0.28570  0.30337  Biso   1.000  Zn
  O3       1.0000 0.05657  0.31203  0.17893  Biso   1.000  O 
  C3       1.0000 0.11327  0.32553  0.25833  Biso   1.000  C 
  C4       1.0000 0.15717  0.32313  0.13933  Biso   1.000  C 
  C5       1.0000 0.20707  0.32803  0.21333  Biso   1.000  C 
  C6       1.0000 0.22007  0.34113  0.40833  Biso   1.000  C 
  O4       1.0000 0.27677  0.35463  0.48773  Biso   1.000  O 
  Zn4      1.0000 0.28570  0.30598  0.69663  Biso   1.000  Zn
  O5       1.0000 0.31203  0.25547  0.82107  Biso   1.000  O 
  C7       1.0000 0.32553  0.21227  0.74167  Biso   1.000  C 
  C8       1.0000 0.32313  0.16597  0.86067  Biso   1.000  C 
  C9       1.0000 0.32803  0.12097  0.78667  Biso   1.000  C 
  C10      1.0000 0.34113  0.12107  0.59167  Biso   1.000  C 
  O6       1.0000 0.35463  0.07787  0.51227  Biso   1.000  O 
  Zn5      1.0000 0.30598  0.02029  0.30337  Biso   1.000  Zn
  O7       1.0000 0.30377  0.96493  0.53643  Biso   1.000  O 
  C11      1.0000 0.26177  0.91023  0.60033  Biso   1.000  C 
  O8       1.0000 0.25997  0.89433  0.77613  Biso   1.000  O 
  Zn6      1.0000 0.31305  0.95236  0.97003  Biso   1.000  Zn
  O9       1.0000 0.38990  0.97870  0.84560  Biso   1.000  O 
  C12      1.0000 0.44660  0.99220  0.92500  Biso   1.000  C 
  C13      1.0000 0.49050  0.98980  0.80600  Biso   1.000  C 
  H1       1.0000 0.48305  0.98374  0.64888  Biso   1.000  H 
  C14      1.0000 0.54040  0.99470  0.88000  Biso   1.000  C 
  C15      1.0000 0.57690  0.98180  0.73300  Biso   1.000  C 
  O10      1.0000 0.56100  0.96770  0.55720  Biso   1.000  O 
  Zn7      1.0000 0.61903  0.97265  0.36330  Biso   1.000  Zn
  Zn8      1.0000 0.69402  0.97971  0.69663  Biso   1.000  Zn
  O11      1.0000 0.74453  0.05657  0.82107  Biso   1.000  O 
  C16      1.0000 0.78773  0.11327  0.74167  Biso   1.000  C 
  C17      1.0000 0.83403  0.15717  0.86067  Biso   1.000  C 
  C18      1.0000 0.87903  0.20707  0.78667  Biso   1.000  C 
  C19      1.0000 0.87893  0.22007  0.59167  Biso   1.000  C 
  O12      1.0000 0.92213  0.27677  0.51227  Biso   1.000  O 
  C20      1.0000 0.83263  0.17617  0.47267  Biso   1.000  C 
  C21      1.0000 0.78763  0.12627  0.54667  Biso   1.000  C 
  C22      1.0000 0.73823  0.08977  0.39967  Biso   1.000  C 
  O13      1.0000 0.69623  0.03507  0.46357  Biso   1.000  O 
  O14      1.0000 0.74003  0.10567  0.22387  Biso   1.000  O 
  Zn9      1.0000 0.68695  0.04764  0.02997  Biso   1.000  Zn
  O15      1.0000 0.67217  0.97043  0.13023  Biso   1.000  O 
  C23      1.0000 0.68487  0.92843  0.06633  Biso   1.000  C 
  O16      1.0000 0.69897  0.92663  0.89053  Biso   1.000  O 
  C24      1.0000 0.67197  0.87903  0.21333  Biso   1.000  C 
  C25      1.0000 0.65887  0.87893  0.40833  Biso   1.000  C 
  O17      1.0000 0.64537  0.92213  0.48773  Biso   1.000  O 
  C26      1.0000 0.65647  0.83263  0.52733  Biso   1.000  C 
  H2       1.0000 0.65041  0.83403  0.68445  Biso   1.000  H 
  C27      1.0000 0.66137  0.78763  0.45333  Biso   1.000  C 
  C28      1.0000 0.64847  0.73823  0.60033  Biso   1.000  C 
  O18      1.0000 0.66117  0.69623  0.53643  Biso   1.000  O 
  Zn10     1.0000 0.64638  0.61903  0.63670  Biso   1.000  Zn
  Zn11     1.0000 0.71430  0.69402  0.30337  Biso   1.000  Zn
  Zn12     1.0000 0.63932  0.68695  0.97003  Biso   1.000  Zn
  O19      1.0000 0.58880  0.61010  0.84560  Biso   1.000  O 
  C29      1.0000 0.54560  0.55340  0.92500  Biso   1.000  C 
  C30      1.0000 0.49930  0.50950  0.80600  Biso   1.000  C 
  C31      1.0000 0.45430  0.45960  0.88000  Biso   1.000  C 
  C32      1.0000 0.40490  0.42310  0.73300  Biso   1.000  C 
  O20      1.0000 0.36290  0.36840  0.79690  Biso   1.000  O 
  Zn13     1.0000 0.36068  0.31305  0.02997  Biso   1.000  Zn
  O21      1.0000 0.41120  0.38990  0.15440  Biso   1.000  O 
  Zn14     1.0000 0.35362  0.38097  0.36330  Biso   1.000  Zn
  O22      1.0000 0.40670  0.43900  0.55720  Biso   1.000  O 
  O23      1.0000 0.29827  0.32783  0.13023  Biso   1.000  O 
  C33      1.0000 0.24357  0.31513  0.06633  Biso   1.000  C 
  O24      1.0000 0.22767  0.30103  0.89053  Biso   1.000  O 
  O25      1.0000 0.33883  0.30377  0.46357  Biso   1.000  O 
  C34      1.0000 0.35153  0.26177  0.39967  Biso   1.000  C 
  O26      1.0000 0.36563  0.25997  0.22387  Biso   1.000  O 
  C35      1.0000 0.33863  0.21237  0.54667  Biso   1.000  C 
  C36      1.0000 0.34353  0.16737  0.47267  Biso   1.000  C 
  H3       1.0000 0.34959  0.16597  0.31555  Biso   1.000  H 
  C37      1.0000 0.45440  0.44660  0.07500  Biso   1.000  C 
  C38      1.0000 0.50070  0.49050  0.19400  Biso   1.000  C 
  H4       1.0000 0.49930  0.48305  0.35112  Biso   1.000  H 
  C39      1.0000 0.54570  0.54040  0.12000  Biso   1.000  C 
  C40      1.0000 0.59510  0.57690  0.26700  Biso   1.000  C 
  O27      1.0000 0.59330  0.56100  0.44280  Biso   1.000  O 
  O28      1.0000 0.63710  0.63160  0.20310  Biso   1.000  O 
  H5       1.0000 0.50070  0.51695  0.64888  Biso   1.000  H 
  O29      1.0000 0.68797  0.74453  0.17893  Biso   1.000  O 
  C41      1.0000 0.67447  0.78773  0.25833  Biso   1.000  C 
  C42      1.0000 0.67687  0.83403  0.13933  Biso   1.000  C 
  H6       1.0000 0.68292  0.83264  0.98222  Biso   1.000  H 
  O30      1.0000 0.63437  0.74003  0.77613  Biso   1.000  O 
  O31      1.0000 0.70173  0.67217  0.86977  Biso   1.000  O 
  C43      1.0000 0.75643  0.68487  0.93367  Biso   1.000  C 
  C44      1.0000 0.79293  0.67197  0.78667  Biso   1.000  C 
  C45      1.0000 0.77993  0.65887  0.59167  Biso   1.000  C 
  O32      1.0000 0.72323  0.64537  0.51227  Biso   1.000  O 
  C46      1.0000 0.82383  0.65647  0.47267  Biso   1.000  C 
  H7       1.0000 0.81638  0.65041  0.31555  Biso   1.000  H 
  C47      1.0000 0.87373  0.66137  0.54667  Biso   1.000  C 
  C48      1.0000 0.91023  0.64847  0.39967  Biso   1.000  C 
  O33      1.0000 0.89433  0.63437  0.22387  Biso   1.000  O 
  Zn15     1.0000 0.95236  0.63932  0.02997  Biso   1.000  Zn
  O34      1.0000 0.00550  0.63710  0.79690  Biso   1.000  O 
  Zn16     1.0000 0.02029  0.71430  0.69663  Biso   1.000  Zn
  O35      1.0000 0.96493  0.66117  0.46357  Biso   1.000  O 
  Zn17     1.0000 0.02735  0.64638  0.36330  Biso   1.000  Zn
  O36      1.0000 0.97870  0.58880  0.15440  Biso   1.000  O 
  C49      1.0000 0.99220  0.54560  0.07500  Biso   1.000  C 
  C50      1.0000 0.00530  0.54570  0.88000  Biso   1.000  C 
  C51      1.0000 0.01820  0.59510  0.73300  Biso   1.000  C 
  O37      1.0000 0.03230  0.59330  0.55720  Biso   1.000  O 
  C52      1.0000 0.98980  0.49930  0.19400  Biso   1.000  C 
  C53      1.0000 0.99470  0.45430  0.12000  Biso   1.000  C 
  C54      1.0000 0.98180  0.40490  0.26700  Biso   1.000  C 
  O38      1.0000 0.99450  0.36290  0.20310  Biso   1.000  O 
  O39      1.0000 0.96770  0.40670  0.44280  Biso   1.000  O 
  H8       1.0000 0.98374  0.50070  0.35112  Biso   1.000  H 
  O40      1.0000 0.07787  0.72323  0.48773  Biso   1.000  O 
  C55      1.0000 0.12107  0.77993  0.40833  Biso   1.000  C 
  C56      1.0000 0.16737  0.82383  0.52733  Biso   1.000  C 
  H9       1.0000 0.16597  0.81638  0.68445  Biso   1.000  H 
  C57      1.0000 0.21237  0.87373  0.45333  Biso   1.000  C 
  C58      1.0000 0.21227  0.88673  0.25833  Biso   1.000  C 
  O41      1.0000 0.25547  0.94343  0.17893  Biso   1.000  O 
  C59      1.0000 0.16597  0.84283  0.13933  Biso   1.000  C 
  C60      1.0000 0.12097  0.79293  0.21333  Biso   1.000  C 
  C61      1.0000 0.07157  0.75643  0.06633  Biso   1.000  C 
  O42      1.0000 0.02957  0.70173  0.13023  Biso   1.000  O 
  O43      1.0000 0.07337  0.77233  0.89053  Biso   1.000  O 
  H10      1.0000 0.16736  0.85028  0.98222  Biso   1.000  H 
  O44      1.0000 0.94343  0.68797  0.82107  Biso   1.000  O 
  C62      1.0000 0.88673  0.67447  0.74167  Biso   1.000  C 
  C63      1.0000 0.84283  0.67687  0.86067  Biso   1.000  C 
  H11      1.0000 0.85028  0.68292  0.01778  Biso   1.000  H 
  O45      1.0000 0.77233  0.69897  0.10947  Biso   1.000  O 
  O46      1.0000 0.63160  0.99450  0.79690  Biso   1.000  O 
  O47      1.0000 0.61010  0.02130  0.15440  Biso   1.000  O 
  C64      1.0000 0.55340  0.00780  0.07500  Biso   1.000  C 
  C65      1.0000 0.50950  0.01020  0.19400  Biso   1.000  C 
  C66      1.0000 0.45960  0.00530  0.12000  Biso   1.000  C 
  C67      1.0000 0.42310  0.01820  0.26700  Biso   1.000  C 
  O48      1.0000 0.36840  0.00550  0.20310  Biso   1.000  O 
  O49      1.0000 0.43900  0.03230  0.44280  Biso   1.000  O 
  Zn18     1.0000 0.38097  0.02735  0.63670  Biso   1.000  Zn
  O50      1.0000 0.32783  0.02957  0.86977  Biso   1.000  O 
  C68      1.0000 0.31513  0.07157  0.93367  Biso   1.000  C 
  O51      1.0000 0.30103  0.07337  0.10947  Biso   1.000  O 
  H12      1.0000 0.51695  0.01626  0.35112  Biso   1.000  H 
  H13      1.0000 0.83403  0.18362  0.31555  Biso   1.000  H 
  C69      1.0000 0.92843  0.24357  0.93367  Biso   1.000  C 
  O52      1.0000 0.92663  0.22767  0.10947  Biso   1.000  O 
  H14      1.0000 0.83264  0.14972  0.01778  Biso   1.000  H 
  H15      1.0000 0.31708  0.16736  0.01778  Biso   1.000  H 
  C70      1.0000 0.17617  0.34353  0.52733  Biso   1.000  C 
  C71      1.0000 0.12627  0.33863  0.45333  Biso   1.000  C 
  C72      1.0000 0.08977  0.35153  0.60033  Biso   1.000  C 
  O53      1.0000 0.03507  0.33883  0.53643  Biso   1.000  O 
  O54      1.0000 0.10567  0.36563  0.77613  Biso   1.000  O 
  H16      1.0000 0.18362  0.34959  0.68445  Biso   1.000  H 
  H17      1.0000 0.14972  0.31708  0.98222  Biso   1.000  H 
  H18      1.0000 0.01626  0.49930  0.64888  Biso   1.000  H 
