data_image0
_cell_length_a       25.939
_cell_length_b       25.939
_cell_length_c       6.83814
_cell_angle_alpha    90
_cell_angle_beta     90
_cell_angle_gamma    120

_symmetry_space_group_name_H-M    "P 1"
_symmetry_int_tables_number       1

loop_
  _symmetry_equiv_pos_as_xyz
  'x, y, z'

loop_
  _atom_site_label
  _atom_site_occupancy
  _atom_site_fract_x
  _atom_site_fract_y
  _atom_site_fract_z
  _atom_site_thermal_displace_type
  _atom_site_B_iso_or_equiv
  _atom_site_type_symbol
  C1       1.0000 0.00950  0.50060  0.80600  Biso   1.000  C 
  C2       1.0000 0.00760  0.45440  0.92500  Biso   1.000  C 
  O1       1.0000 0.02060  0.40980  0.84460  Biso   1.000  O 
  Zn1      1.0000 0.04777  0.36080  0.97003  Biso   1.000  Zn
  O2       1.0000 0.97193  0.29897  0.86847  Biso   1.000  O 
  Zn2      1.0000 0.97253  0.35363  0.63670  Biso   1.000  Zn
  Zn3      1.0000 0.97970  0.28557  0.30337  Biso   1.000  Zn
  O3       1.0000 0.05587  0.31273  0.17793  Biso   1.000  O 
  C3       1.0000 0.11347  0.32573  0.25833  Biso   1.000  C 
  C4       1.0000 0.15777  0.32383  0.13933  Biso   1.000  C 
  C5       1.0000 0.20707  0.32803  0.21333  Biso   1.000  C 
  C6       1.0000 0.21987  0.34093  0.40833  Biso   1.000  C 
  O4       1.0000 0.27747  0.35393  0.48873  Biso   1.000  O 
  Zn4      1.0000 0.28557  0.30586  0.69663  Biso   1.000  Zn
  O5       1.0000 0.31273  0.25687  0.82207  Biso   1.000  O 
  C7       1.0000 0.32573  0.21227  0.74167  Biso   1.000  C 
  C8       1.0000 0.32383  0.16607  0.86067  Biso   1.000  C 
  C9       1.0000 0.32803  0.12097  0.78667  Biso   1.000  C 
  C10      1.0000 0.34093  0.12107  0.59167  Biso   1.000  C 
  O6       1.0000 0.35393  0.07647  0.51127  Biso   1.000  O 
  Zn5      1.0000 0.30586  0.02030  0.30337  Biso   1.000  Zn
  O7       1.0000 0.25687  0.94413  0.17793  Biso   1.000  O 
  Zn6      1.0000 0.31304  0.95223  0.97003  Biso   1.000  Zn
  O8       1.0000 0.38920  0.97940  0.84460  Biso   1.000  O 
  C11      1.0000 0.44680  0.99240  0.92500  Biso   1.000  C 
  C12      1.0000 0.49110  0.99050  0.80600  Biso   1.000  C 
  H1       1.0000 0.48417  0.98541  0.64850  Biso   1.000  H 
  C13      1.0000 0.54040  0.99470  0.88000  Biso   1.000  C 
  C14      1.0000 0.57690  0.98180  0.73300  Biso   1.000  C 
  O9       1.0000 0.56110  0.96790  0.55750  Biso   1.000  O 
  Zn7      1.0000 0.61890  0.97253  0.36330  Biso   1.000  Zn
  Zn8      1.0000 0.69414  0.97970  0.69663  Biso   1.000  Zn
  O10      1.0000 0.74313  0.05587  0.82207  Biso   1.000  O 
  C15      1.0000 0.78773  0.11347  0.74167  Biso   1.000  C 
  C16      1.0000 0.83393  0.15777  0.86067  Biso   1.000  C 
  C17      1.0000 0.87903  0.20707  0.78667  Biso   1.000  C 
  C18      1.0000 0.87893  0.21987  0.59167  Biso   1.000  C 
  O11      1.0000 0.92353  0.27747  0.51127  Biso   1.000  O 
  C19      1.0000 0.83273  0.17557  0.47267  Biso   1.000  C 
  C20      1.0000 0.78763  0.12627  0.54667  Biso   1.000  C 
  C21      1.0000 0.73823  0.08977  0.39967  Biso   1.000  C 
  O12      1.0000 0.69473  0.03437  0.46487  Biso   1.000  O 
  O13      1.0000 0.74013  0.10557  0.22417  Biso   1.000  O 
  Zn9      1.0000 0.68696  0.04777  0.02997  Biso   1.000  Zn
  O14      1.0000 0.67297  0.97193  0.13153  Biso   1.000  O 
  C22      1.0000 0.68487  0.92843  0.06633  Biso   1.000  C 
  O15      1.0000 0.69877  0.92653  0.89083  Biso   1.000  O 
  C23      1.0000 0.67197  0.87903  0.21333  Biso   1.000  C 
  C24      1.0000 0.65907  0.87893  0.40833  Biso   1.000  C 
  O16      1.0000 0.64607  0.92353  0.48873  Biso   1.000  O 
  C25      1.0000 0.65717  0.83273  0.52733  Biso   1.000  C 
  H2       1.0000 0.65208  0.83457  0.68483  Biso   1.000  H 
  C26      1.0000 0.66137  0.78763  0.45333  Biso   1.000  C 
  C27      1.0000 0.64847  0.73823  0.60033  Biso   1.000  C 
  O17      1.0000 0.63457  0.74013  0.77583  Biso   1.000  O 
  Zn10     1.0000 0.63920  0.68696  0.97003  Biso   1.000  Zn
  O18      1.0000 0.59020  0.61080  0.84460  Biso   1.000  O 
  Zn11     1.0000 0.64637  0.61890  0.63670  Biso   1.000  Zn
  Zn12     1.0000 0.71443  0.69414  0.30337  Biso   1.000  Zn
  O19      1.0000 0.68727  0.74313  0.17793  Biso   1.000  O 
  C28      1.0000 0.67427  0.78773  0.25833  Biso   1.000  C 
  C29      1.0000 0.67617  0.83393  0.13933  Biso   1.000  C 
  H3       1.0000 0.68126  0.83209  0.98183  Biso   1.000  H 
  O20      1.0000 0.72253  0.64607  0.51127  Biso   1.000  O 
  C30      1.0000 0.78013  0.65907  0.59167  Biso   1.000  C 
  C31      1.0000 0.82443  0.65717  0.47267  Biso   1.000  C 
  H4       1.0000 0.81750  0.65208  0.31517  Biso   1.000  H 
  C32      1.0000 0.87373  0.66137  0.54667  Biso   1.000  C 
  C33      1.0000 0.91023  0.64847  0.39967  Biso   1.000  C 
  O21      1.0000 0.89443  0.63457  0.22417  Biso   1.000  O 
  Zn13     1.0000 0.95223  0.63920  0.02997  Biso   1.000  Zn
  O22      1.0000 0.00630  0.63860  0.79820  Biso   1.000  O 
  Zn14     1.0000 0.02030  0.71443  0.69663  Biso   1.000  Zn
  O23      1.0000 0.94413  0.68727  0.82207  Biso   1.000  O 
  C34      1.0000 0.88653  0.67427  0.74167  Biso   1.000  C 
  C35      1.0000 0.84223  0.67617  0.86067  Biso   1.000  C 
  C36      1.0000 0.79293  0.67197  0.78667  Biso   1.000  C 
  C37      1.0000 0.75643  0.68487  0.93367  Biso   1.000  C 
  O24      1.0000 0.70103  0.67297  0.86847  Biso   1.000  O 
  O25      1.0000 0.77223  0.69877  0.10917  Biso   1.000  O 
  H5       1.0000 0.84916  0.68126  0.01817  Biso   1.000  H 
  O26      1.0000 0.96563  0.66037  0.46487  Biso   1.000  O 
  Zn15     1.0000 0.02747  0.64637  0.36330  Biso   1.000  Zn
  O27      1.0000 0.97940  0.59020  0.15540  Biso   1.000  O 
  C38      1.0000 0.99240  0.54560  0.07500  Biso   1.000  C 
  C39      1.0000 0.00530  0.54570  0.88000  Biso   1.000  C 
  C40      1.0000 0.01820  0.59510  0.73300  Biso   1.000  C 
  O28      1.0000 0.03210  0.59320  0.55750  Biso   1.000  O 
  C41      1.0000 0.99050  0.49940  0.19400  Biso   1.000  C 
  H6       1.0000 0.98541  0.50124  0.35150  Biso   1.000  H 
  C42      1.0000 0.99470  0.45430  0.12000  Biso   1.000  C 
  C43      1.0000 0.98180  0.40490  0.26700  Biso   1.000  C 
  O29      1.0000 0.99370  0.36140  0.20180  Biso   1.000  O 
  O30      1.0000 0.96790  0.40680  0.44250  Biso   1.000  O 
  O31      1.0000 0.07647  0.72253  0.48873  Biso   1.000  O 
  C44      1.0000 0.12107  0.78013  0.40833  Biso   1.000  C 
  C45      1.0000 0.16727  0.82443  0.52733  Biso   1.000  C 
  H7       1.0000 0.16543  0.81750  0.68483  Biso   1.000  H 
  C46      1.0000 0.21237  0.87373  0.45333  Biso   1.000  C 
  C47      1.0000 0.26177  0.91023  0.60033  Biso   1.000  C 
  O32      1.0000 0.25987  0.89443  0.77583  Biso   1.000  O 
  O33      1.0000 0.30527  0.96563  0.53513  Biso   1.000  O 
  Zn16     1.0000 0.38110  0.02747  0.63670  Biso   1.000  Zn
  O34      1.0000 0.43890  0.03210  0.44250  Biso   1.000  O 
  C48      1.0000 0.42310  0.01820  0.26700  Biso   1.000  C 
  O35      1.0000 0.36770  0.00630  0.20180  Biso   1.000  O 
  C49      1.0000 0.45960  0.00530  0.12000  Biso   1.000  C 
  C50      1.0000 0.50890  0.00950  0.19400  Biso   1.000  C 
  H8       1.0000 0.51583  0.01459  0.35150  Biso   1.000  H 
  C51      1.0000 0.55320  0.00760  0.07500  Biso   1.000  C 
  O36      1.0000 0.61080  0.02060  0.15540  Biso   1.000  O 
  O37      1.0000 0.32703  0.02807  0.86847  Biso   1.000  O 
  C52      1.0000 0.31513  0.07157  0.93367  Biso   1.000  C 
  O38      1.0000 0.30123  0.07347  0.10917  Biso   1.000  O 
  C53      1.0000 0.21227  0.88653  0.25833  Biso   1.000  C 
  C54      1.0000 0.16607  0.84223  0.13933  Biso   1.000  C 
  C55      1.0000 0.12097  0.79293  0.21333  Biso   1.000  C 
  C56      1.0000 0.07157  0.75643  0.06633  Biso   1.000  C 
  O39      1.0000 0.02807  0.70103  0.13153  Biso   1.000  O 
  O40      1.0000 0.07347  0.77223  0.89083  Biso   1.000  O 
  H9       1.0000 0.16791  0.84916  0.98183  Biso   1.000  H 
  O41      1.0000 0.63860  0.63230  0.20180  Biso   1.000  O 
  C57      1.0000 0.59510  0.57690  0.26700  Biso   1.000  C 
  O42      1.0000 0.59320  0.56110  0.44250  Biso   1.000  O 
  C58      1.0000 0.54570  0.54040  0.12000  Biso   1.000  C 
  C59      1.0000 0.54560  0.55320  0.92500  Biso   1.000  C 
  C60      1.0000 0.49940  0.50890  0.80600  Biso   1.000  C 
  C61      1.0000 0.45430  0.45960  0.88000  Biso   1.000  C 
  C62      1.0000 0.40490  0.42310  0.73300  Biso   1.000  C 
  O43      1.0000 0.40680  0.43890  0.55750  Biso   1.000  O 
  Zn17     1.0000 0.35363  0.38110  0.36330  Biso   1.000  Zn
  Zn18     1.0000 0.36080  0.31304  0.02997  Biso   1.000  Zn
  O44      1.0000 0.36140  0.36770  0.79820  Biso   1.000  O 
  O45      1.0000 0.40980  0.38920  0.15540  Biso   1.000  O 
  C63      1.0000 0.45440  0.44680  0.07500  Biso   1.000  C 
  C64      1.0000 0.50060  0.49110  0.19400  Biso   1.000  C 
  H10      1.0000 0.49876  0.48417  0.35150  Biso   1.000  H 
  O46      1.0000 0.36543  0.25987  0.22417  Biso   1.000  O 
  C65      1.0000 0.35153  0.26177  0.39967  Biso   1.000  C 
  O47      1.0000 0.33963  0.30527  0.46487  Biso   1.000  O 
  C66      1.0000 0.33863  0.21237  0.54667  Biso   1.000  C 
  C67      1.0000 0.34283  0.16727  0.47267  Biso   1.000  C 
  H11      1.0000 0.34792  0.16543  0.31517  Biso   1.000  H 
  O48      1.0000 0.29897  0.32703  0.13153  Biso   1.000  O 
  C68      1.0000 0.24357  0.31513  0.06633  Biso   1.000  C 
  O49      1.0000 0.22777  0.30123  0.89083  Biso   1.000  O 
  H12      1.0000 0.50124  0.51583  0.64850  Biso   1.000  H 
  O50      1.0000 0.66037  0.69473  0.53513  Biso   1.000  O 
  O51      1.0000 0.63230  0.99370  0.79820  Biso   1.000  O 
  H13      1.0000 0.83457  0.18250  0.31517  Biso   1.000  H 
  C69      1.0000 0.92843  0.24357  0.93367  Biso   1.000  C 
  O52      1.0000 0.92653  0.22777  0.10917  Biso   1.000  O 
  H14      1.0000 0.83209  0.15084  0.01817  Biso   1.000  H 
  H15      1.0000 0.31874  0.16791  0.01817  Biso   1.000  H 
  C70      1.0000 0.17557  0.34283  0.52733  Biso   1.000  C 
  C71      1.0000 0.12627  0.33863  0.45333  Biso   1.000  C 
  C72      1.0000 0.08977  0.35153  0.60033  Biso   1.000  C 
  O53      1.0000 0.03437  0.33963  0.53513  Biso   1.000  O 
  O54      1.0000 0.10557  0.36543  0.77583  Biso   1.000  O 
  H16      1.0000 0.18250  0.34792  0.68483  Biso   1.000  H 
  H17      1.0000 0.15084  0.31874  0.98183  Biso   1.000  H 
  H18      1.0000 0.01459  0.49876  0.64850  Biso   1.000  H 
