data_image0
_cell_length_a       14.765
_cell_length_b       17.932
_cell_length_c       16.285
_cell_angle_alpha    90
_cell_angle_beta     105.678
_cell_angle_gamma    90

_symmetry_space_group_name_H-M    "P 1"
_symmetry_int_tables_number       1

loop_
  _symmetry_equiv_pos_as_xyz
  'x, y, z'

loop_
  _atom_site_label
  _atom_site_occupancy
  _atom_site_fract_x
  _atom_site_fract_y
  _atom_site_fract_z
  _atom_site_thermal_displace_type
  _atom_site_B_iso_or_equiv
  _atom_site_type_symbol
  I1       1.0000 0.45232  0.99247  0.36894  Biso   1.000  I 
  Cu1      1.0000 0.27031  0.98856  0.28546  Biso   1.000  Cu
  Cu2      1.0000 0.26831  0.99289  0.10548  Biso   1.000  Cu
  Cu3      1.0000 0.39540  0.91475  0.22305  Biso   1.000  Cu
  N1       1.0000 0.46800  0.81530  0.23810  Biso   1.000  N 
  C1       1.0000 0.41800  0.75130  0.22290  Biso   1.000  C 
  H1       1.0000 0.35125  0.75345  0.20471  Biso   1.000  H 
  C2       1.0000 0.46300  0.68210  0.23360  Biso   1.000  C 
  H2       1.0000 0.42511  0.63849  0.22159  Biso   1.000  H 
  N2       1.0000 0.55550  0.67380  0.25950  Biso   1.000  N 
  C3       1.0000 0.60430  0.73830  0.27230  Biso   1.000  C 
  C4       1.0000 0.56430  0.80890  0.26190  Biso   1.000  C 
  C5       1.0000 0.62330  0.87910  0.27720  Biso   1.000  C 
  H3       1.0000 0.57928  0.92260  0.26620  Biso   1.000  H 
  C6       1.0000 0.68540  0.88550  0.37020  Biso   1.000  C 
  H4       1.0000 0.73187  0.84441  0.38251  Biso   1.000  H 
  H5       1.0000 0.64556  0.88123  0.41012  Biso   1.000  H 
  C7       1.0000 0.73740  0.96180  0.38330  Biso   1.000  C 
  C8       1.0000 0.80010  0.96860  0.32170  Biso   1.000  C 
  H6       1.0000 0.84863  0.92901  0.33431  Biso   1.000  H 
  C9       1.0000 0.74040  0.96130  0.22950  Biso   1.000  C 
  C10      1.0000 0.68620  0.88550  0.21550  Biso   1.000  C 
  H7       1.0000 0.73168  0.84376  0.22558  Biso   1.000  H 
  H8       1.0000 0.64675  0.88234  0.15588  Biso   1.000  H 
  C11      1.0000 0.79920  0.96630  0.16530  Biso   1.000  C 
  N3       1.0000 0.89010  0.95140  0.18970  Biso   1.000  N 
  C12      1.0000 0.93580  0.95400  0.12800  Biso   1.000  C 
  C13      1.0000 0.89070  0.97130  0.04530  Biso   1.000  C 
  H9       1.0000 0.92561  0.97043  0.00409  Biso   1.000  H 
  N4       1.0000 0.79910  0.98930  0.01970  Biso   1.000  N 
  C14      1.0000 0.75430  0.98590  0.08210  Biso   1.000  C 
  H10      1.0000 0.68915  0.99757  0.06804  Biso   1.000  H 
  Cu4      1.0000 0.73169  0.00711  0.89452  Biso   1.000  Cu
  Cu5      1.0000 0.60460  0.08525  0.77695  Biso   1.000  Cu
  N5       1.0000 0.53200  0.18470  0.76190  Biso   1.000  N 
  C15      1.0000 0.43570  0.19110  0.73810  Biso   1.000  C 
  C16      1.0000 0.37670  0.12090  0.72280  Biso   1.000  C 
  C17      1.0000 0.31460  0.11450  0.62980  Biso   1.000  C 
  H11      1.0000 0.26813  0.15559  0.61749  Biso   1.000  H 
  H12      1.0000 0.35444  0.11877  0.58988  Biso   1.000  H 
  C18      1.0000 0.26260  0.03820  0.61670  Biso   1.000  C 
  C19      1.0000 0.19990  0.03140  0.67830  Biso   1.000  C 
  C20      1.0000 0.25960  0.03870  0.77050  Biso   1.000  C 
  C21      1.0000 0.31380  0.11450  0.78450  Biso   1.000  C 
  H13      1.0000 0.35325  0.11766  0.84412  Biso   1.000  H 
  H14      1.0000 0.26832  0.15624  0.77442  Biso   1.000  H 
  H15      1.0000 0.30665  0.99726  0.78258  Biso   1.000  H 
  C22      1.0000 0.20080  0.03370  0.83470  Biso   1.000  C 
  N6       1.0000 0.10990  0.04860  0.81030  Biso   1.000  N 
  C23      1.0000 0.06420  0.04600  0.87200  Biso   1.000  C 
  H16      1.0000 0.99868  0.05646  0.85731  Biso   1.000  H 
  C24      1.0000 0.10930  0.02870  0.95470  Biso   1.000  C 
  H17      1.0000 0.07439  0.02957  0.99591  Biso   1.000  H 
  N7       1.0000 0.20090  0.01070  0.98030  Biso   1.000  N 
  C25      1.0000 0.24570  0.01410  0.91790  Biso   1.000  C 
  H18      1.0000 0.31085  0.00243  0.93196  Biso   1.000  H 
  H19      1.0000 0.15137  0.07099  0.66569  Biso   1.000  H 
  H20      1.0000 0.16756  0.98251  0.67023  Biso   1.000  H 
  H21      1.0000 0.31085  0.99768  0.63049  Biso   1.000  H 
  C26      1.0000 0.20420  0.02800  0.52440  Biso   1.000  C 
  N8       1.0000 0.11170  0.03550  0.50420  Biso   1.000  N 
  C27      1.0000 0.06620  0.02590  0.42120  Biso   1.000  C 
  H22      1.0000 0.99952  0.02964  0.40441  Biso   1.000  H 
  C28      1.0000 0.11160  0.01090  0.35960  Biso   1.000  C 
  H23      1.0000 0.07607  0.00726  0.30165  Biso   1.000  H 
  N9       1.0000 0.20440  0.00130  0.37950  Biso   1.000  N 
  C29      1.0000 0.24970  0.00880  0.46200  Biso   1.000  C 
  H24      1.0000 0.31578  0.00072  0.47921  Biso   1.000  H 
  H25      1.0000 0.42072  0.07740  0.73380  Biso   1.000  H 
  C30      1.0000 0.39570  0.26170  0.72770  Biso   1.000  C 
  H26      1.0000 0.32896  0.26475  0.71026  Biso   1.000  H 
  N10      1.0000 0.44450  0.32620  0.74050  Biso   1.000  N 
  C31      1.0000 0.53700  0.31790  0.76640  Biso   1.000  C 
  H27      1.0000 0.57489  0.36151  0.77841  Biso   1.000  H 
  C32      1.0000 0.58200  0.24870  0.77710  Biso   1.000  C 
  H28      1.0000 0.64875  0.24655  0.79529  Biso   1.000  H 
  Cu6      1.0000 0.38383  0.42876  0.72479  Biso   1.000  Cu
  I2       1.0000 0.45232  0.50753  0.86894  Biso   1.000  I 
  Cu7      1.0000 0.39540  0.58525  0.72305  Biso   1.000  Cu
  N11      1.0000 0.46800  0.68470  0.73810  Biso   1.000  N 
  C33      1.0000 0.56430  0.69110  0.76190  Biso   1.000  C 
  C34      1.0000 0.62330  0.62090  0.77720  Biso   1.000  C 
  H29      1.0000 0.57928  0.57740  0.76620  Biso   1.000  H 
  C35      1.0000 0.68540  0.61450  0.87020  Biso   1.000  C 
  H30      1.0000 0.64556  0.61877  0.91012  Biso   1.000  H 
  H31      1.0000 0.73187  0.65559  0.88251  Biso   1.000  H 
  C36      1.0000 0.73740  0.53820  0.88330  Biso   1.000  C 
  H32      1.0000 0.68915  0.49768  0.86951  Biso   1.000  H 
  C37      1.0000 0.80010  0.53140  0.82170  Biso   1.000  C 
  H33      1.0000 0.83244  0.48251  0.82977  Biso   1.000  H 
  C38      1.0000 0.74040  0.53870  0.72950  Biso   1.000  C 
  H34      1.0000 0.69335  0.49726  0.71742  Biso   1.000  H 
  C39      1.0000 0.68620  0.61450  0.71550  Biso   1.000  C 
  H35      1.0000 0.64675  0.61766  0.65588  Biso   1.000  H 
  H36      1.0000 0.73168  0.65624  0.72558  Biso   1.000  H 
  C40      1.0000 0.79920  0.53370  0.66530  Biso   1.000  C 
  N12      1.0000 0.89010  0.54860  0.68970  Biso   1.000  N 
  C41      1.0000 0.93580  0.54600  0.62800  Biso   1.000  C 
  C42      1.0000 0.89070  0.52870  0.54530  Biso   1.000  C 
  H37      1.0000 0.92561  0.52957  0.50409  Biso   1.000  H 
  N13      1.0000 0.79910  0.51070  0.51970  Biso   1.000  N 
  C43      1.0000 0.75430  0.51410  0.58210  Biso   1.000  C 
  H38      1.0000 0.68915  0.50243  0.56804  Biso   1.000  H 
  Cu8      1.0000 0.73169  0.49289  0.39452  Biso   1.000  Cu
  Cu9      1.0000 0.60460  0.41475  0.27695  Biso   1.000  Cu
  N14      1.0000 0.53200  0.31530  0.26190  Biso   1.000  N 
  C44      1.0000 0.58200  0.25130  0.27710  Biso   1.000  C 
  H39      1.0000 0.64875  0.25345  0.29529  Biso   1.000  H 
  C45      1.0000 0.53700  0.18210  0.26640  Biso   1.000  C 
  H40      1.0000 0.57489  0.13849  0.27841  Biso   1.000  H 
  N15      1.0000 0.44450  0.17380  0.24050  Biso   1.000  N 
  C46      1.0000 0.39570  0.23830  0.22770  Biso   1.000  C 
  H41      1.0000 0.32896  0.23525  0.21026  Biso   1.000  H 
  C47      1.0000 0.43570  0.30890  0.23810  Biso   1.000  C 
  C48      1.0000 0.37670  0.37910  0.22280  Biso   1.000  C 
  C49      1.0000 0.31460  0.38550  0.12980  Biso   1.000  C 
  H42      1.0000 0.26813  0.34441  0.11749  Biso   1.000  H 
  H43      1.0000 0.35444  0.38123  0.08988  Biso   1.000  H 
  C50      1.0000 0.26260  0.46180  0.11670  Biso   1.000  C 
  C51      1.0000 0.19990  0.46860  0.17830  Biso   1.000  C 
  C52      1.0000 0.25960  0.46130  0.27050  Biso   1.000  C 
  C53      1.0000 0.31380  0.38550  0.28450  Biso   1.000  C 
  H44      1.0000 0.26832  0.34376  0.27442  Biso   1.000  H 
  H45      1.0000 0.35325  0.38234  0.34412  Biso   1.000  H 
  H46      1.0000 0.30665  0.50274  0.28258  Biso   1.000  H 
  C54      1.0000 0.20080  0.46630  0.33470  Biso   1.000  C 
  N16      1.0000 0.10990  0.45140  0.31030  Biso   1.000  N 
  C55      1.0000 0.06420  0.45400  0.37200  Biso   1.000  C 
  H47      1.0000 0.99868  0.44354  0.35731  Biso   1.000  H 
  C56      1.0000 0.10930  0.47130  0.45470  Biso   1.000  C 
  H48      1.0000 0.07439  0.47043  0.49591  Biso   1.000  H 
  N17      1.0000 0.20090  0.48930  0.48030  Biso   1.000  N 
  C57      1.0000 0.24570  0.48590  0.41790  Biso   1.000  C 
  H49      1.0000 0.31085  0.49757  0.43196  Biso   1.000  H 
  Cu10     1.0000 0.26831  0.50711  0.60548  Biso   1.000  Cu
  I3       1.0000 0.45033  0.50145  0.60812  Biso   1.000  I 
  I4       1.0000 0.21178  0.62441  0.67838  Biso   1.000  I 
  Cu11     1.0000 0.27031  0.51144  0.78546  Biso   1.000  Cu
  N18      1.0000 0.20440  0.49870  0.87950  Biso   1.000  N 
  C58      1.0000 0.11160  0.48910  0.85960  Biso   1.000  C 
  H50      1.0000 0.07607  0.49274  0.80165  Biso   1.000  H 
  C59      1.0000 0.06620  0.47410  0.92120  Biso   1.000  C 
  H51      1.0000 0.99952  0.47036  0.90441  Biso   1.000  H 
  N19      1.0000 0.11170  0.46450  0.00420  Biso   1.000  N 
  C60      1.0000 0.20420  0.47200  0.02440  Biso   1.000  C 
  C61      1.0000 0.24970  0.49120  0.96200  Biso   1.000  C 
  H52      1.0000 0.31578  0.49928  0.97921  Biso   1.000  H 
  I5       1.0000 0.19949  0.39439  0.68149  Biso   1.000  I 
  H53      1.0000 0.15137  0.42901  0.16569  Biso   1.000  H 
  H54      1.0000 0.16756  0.51749  0.17023  Biso   1.000  H 
  H55      1.0000 0.31085  0.50232  0.13049  Biso   1.000  H 
  H56      1.0000 0.42072  0.42260  0.23380  Biso   1.000  H 
  Cu12     1.0000 0.38383  0.07124  0.22479  Biso   1.000  Cu
  I6       1.0000 0.45033  0.99855  0.10812  Biso   1.000  I 
  I7       1.0000 0.19949  0.10561  0.18149  Biso   1.000  I 
  Cu13     1.0000 0.61617  0.57124  0.27521  Biso   1.000  Cu
  I8       1.0000 0.54768  0.49247  0.13106  Biso   1.000  I 
  Cu14     1.0000 0.72969  0.48856  0.21454  Biso   1.000  Cu
  N20      1.0000 0.79560  0.50130  0.12050  Biso   1.000  N 
  C62      1.0000 0.88840  0.51090  0.14040  Biso   1.000  C 
  H57      1.0000 0.92393  0.50726  0.19835  Biso   1.000  H 
  C63      1.0000 0.93380  0.52590  0.07880  Biso   1.000  C 
  N21      1.0000 0.88830  0.53550  0.99580  Biso   1.000  N 
  C64      1.0000 0.79580  0.52800  0.97560  Biso   1.000  C 
  C65      1.0000 0.75030  0.50880  0.03800  Biso   1.000  C 
  H58      1.0000 0.68422  0.50072  0.02079  Biso   1.000  H 
  H59      1.0000 0.00048  0.52964  0.09559  Biso   1.000  H 
  I9       1.0000 0.78822  0.37559  0.32162  Biso   1.000  I 
  I10      1.0000 0.80051  0.60561  0.31851  Biso   1.000  I 
  I11      1.0000 0.54967  0.49855  0.39188  Biso   1.000  I 
  H60      1.0000 0.00132  0.55646  0.64269  Biso   1.000  H 
  H61      1.0000 0.84863  0.57099  0.83431  Biso   1.000  H 
  C66      1.0000 0.60430  0.76170  0.77230  Biso   1.000  C 
  H62      1.0000 0.67104  0.76475  0.78974  Biso   1.000  H 
  N22      1.0000 0.55550  0.82620  0.75950  Biso   1.000  N 
  C67      1.0000 0.46300  0.81790  0.73360  Biso   1.000  C 
  H63      1.0000 0.42511  0.86151  0.72159  Biso   1.000  H 
  C68      1.0000 0.41800  0.74870  0.72290  Biso   1.000  C 
  H64      1.0000 0.35125  0.74655  0.70471  Biso   1.000  H 
  Cu15     1.0000 0.61617  0.92876  0.77521  Biso   1.000  Cu
  I12      1.0000 0.54768  0.00753  0.63106  Biso   1.000  I 
  Cu16     1.0000 0.72969  0.01144  0.71454  Biso   1.000  Cu
  N23      1.0000 0.79560  0.99870  0.62050  Biso   1.000  N 
  C69      1.0000 0.75030  0.99120  0.53800  Biso   1.000  C 
  C70      1.0000 0.79580  0.97200  0.47560  Biso   1.000  C 
  N24      1.0000 0.88830  0.96450  0.49580  Biso   1.000  N 
  C71      1.0000 0.93380  0.97410  0.57880  Biso   1.000  C 
  C72      1.0000 0.88840  0.98910  0.64040  Biso   1.000  C 
  H65      1.0000 0.92393  0.99274  0.69835  Biso   1.000  H 
  H66      1.0000 0.00048  0.97036  0.59559  Biso   1.000  H 
  H67      1.0000 0.68422  0.99928  0.52079  Biso   1.000  H 
  I13      1.0000 0.80051  0.89439  0.81851  Biso   1.000  I 
  I14      1.0000 0.78822  0.12441  0.82162  Biso   1.000  I 
  I15      1.0000 0.54967  0.00145  0.89188  Biso   1.000  I 
  H68      1.0000 0.00132  0.94354  0.14269  Biso   1.000  H 
  H69      1.0000 0.69335  0.00274  0.21742  Biso   1.000  H 
  H70      1.0000 0.83244  0.01749  0.32977  Biso   1.000  H 
  H71      1.0000 0.68915  0.00232  0.36951  Biso   1.000  H 
  H72      1.0000 0.67104  0.73525  0.28974  Biso   1.000  H 
  I16      1.0000 0.21178  0.87559  0.17838  Biso   1.000  I 
