data_image0
_cell_length_a       13.4104
_cell_length_b       13.792
_cell_length_c       23.7344
_cell_angle_alpha    90
_cell_angle_beta     90
_cell_angle_gamma    90

_symmetry_space_group_name_H-M    "P 1"
_symmetry_int_tables_number       1

loop_
  _symmetry_equiv_pos_as_xyz
  'x, y, z'

loop_
  _atom_site_label
  _atom_site_occupancy
  _atom_site_fract_x
  _atom_site_fract_y
  _atom_site_fract_z
  _atom_site_thermal_displace_type
  _atom_site_B_iso_or_equiv
  _atom_site_type_symbol
  I1       1.0000 0.51194  0.75164  0.01074  Biso   1.000  I 
  I2       1.0000 0.98806  0.24836  0.51074  Biso   1.000  I 
  I3       1.0000 0.48806  0.25164  0.48926  Biso   1.000  I 
  I4       1.0000 0.01194  0.74836  0.98926  Biso   1.000  I 
  I5       1.0000 0.76306  0.57775  0.95803  Biso   1.000  I 
  I6       1.0000 0.73694  0.42225  0.45803  Biso   1.000  I 
  I7       1.0000 0.23694  0.07775  0.54197  Biso   1.000  I 
  I8       1.0000 0.26306  0.92225  0.04197  Biso   1.000  I 
  I9       1.0000 0.75715  0.76738  0.10781  Biso   1.000  I 
  I10      1.0000 0.74285  0.23262  0.60781  Biso   1.000  I 
  I11      1.0000 0.24285  0.26738  0.39219  Biso   1.000  I 
  I12      1.0000 0.25715  0.73262  0.89219  Biso   1.000  I 
  I13      1.0000 0.76587  0.90956  0.94269  Biso   1.000  I 
  I14      1.0000 0.73413  0.09044  0.44269  Biso   1.000  I 
  I15      1.0000 0.23413  0.40956  0.55731  Biso   1.000  I 
  I16      1.0000 0.26587  0.59044  0.05731  Biso   1.000  I 
  I17      1.0000 0.60095  0.72716  0.82659  Biso   1.000  I 
  I18      1.0000 0.89905  0.27284  0.32659  Biso   1.000  I 
  I19      1.0000 0.39905  0.22716  0.67341  Biso   1.000  I 
  I20      1.0000 0.10095  0.77284  0.17341  Biso   1.000  I 
  I21      1.0000 0.45879  0.98133  0.89206  Biso   1.000  I 
  I22      1.0000 0.04121  0.01867  0.39206  Biso   1.000  I 
  I23      1.0000 0.54121  0.48133  0.60794  Biso   1.000  I 
  I24      1.0000 0.95879  0.51867  0.10794  Biso   1.000  I 
  I25      1.0000 0.45833  0.48528  0.92084  Biso   1.000  I 
  I26      1.0000 0.04167  0.51472  0.42084  Biso   1.000  I 
  I27      1.0000 0.54167  0.98528  0.57916  Biso   1.000  I 
  I28      1.0000 0.95833  0.01472  0.07916  Biso   1.000  I 
  Cu1      1.0000 0.71450  0.74956  0.99496  Biso   1.000  Cu
  Cu2      1.0000 0.78550  0.25044  0.49496  Biso   1.000  Cu
  Cu3      1.0000 0.28550  0.24956  0.50504  Biso   1.000  Cu
  Cu4      1.0000 0.21450  0.75044  0.00504  Biso   1.000  Cu
  Cu5      1.0000 0.36884  0.85030  0.95318  Biso   1.000  Cu
  Cu6      1.0000 0.13116  0.14970  0.45318  Biso   1.000  Cu
  Cu7      1.0000 0.63116  0.35030  0.54682  Biso   1.000  Cu
  Cu8      1.0000 0.86884  0.64970  0.04682  Biso   1.000  Cu
  Cu9      1.0000 0.36615  0.63218  0.96226  Biso   1.000  Cu
  Cu10     1.0000 0.13385  0.36782  0.46226  Biso   1.000  Cu
  Cu11     1.0000 0.63385  0.13218  0.53774  Biso   1.000  Cu
  Cu12     1.0000 0.86615  0.86782  0.03774  Biso   1.000  Cu
  Cu13     1.0000 0.58559  0.84033  0.91388  Biso   1.000  Cu
  Cu14     1.0000 0.91441  0.15967  0.41388  Biso   1.000  Cu
  Cu15     1.0000 0.41441  0.34033  0.58612  Biso   1.000  Cu
  Cu16     1.0000 0.08559  0.65967  0.08612  Biso   1.000  Cu
  Cu17     1.0000 0.57920  0.63423  0.92189  Biso   1.000  Cu
  Cu18     1.0000 0.92080  0.36577  0.42189  Biso   1.000  Cu
  Cu19     1.0000 0.42080  0.13423  0.57811  Biso   1.000  Cu
  Cu20     1.0000 0.07920  0.86577  0.07811  Biso   1.000  Cu
  Fe1      1.0000 0.60842  0.76926  0.33486  Biso   1.000  Fe
  Fe2      1.0000 0.89158  0.23074  0.83486  Biso   1.000  Fe
  Fe3      1.0000 0.39158  0.26926  0.16514  Biso   1.000  Fe
  Fe4      1.0000 0.10842  0.73074  0.66514  Biso   1.000  Fe
  N1       1.0000 0.67390  0.76650  0.40930  Biso   1.000  N 
  N2       1.0000 0.82610  0.23350  0.90930  Biso   1.000  N 
  N3       1.0000 0.32610  0.26650  0.09070  Biso   1.000  N 
  N4       1.0000 0.17390  0.73350  0.59070  Biso   1.000  N 
  N5       1.0000 0.52890  0.76490  0.26510  Biso   1.000  N 
  N6       1.0000 0.97110  0.23510  0.76510  Biso   1.000  N 
  N7       1.0000 0.47110  0.26490  0.23490  Biso   1.000  N 
  N8       1.0000 0.02890  0.73510  0.73490  Biso   1.000  N 
  N9       1.0000 0.71270  0.68440  0.30670  Biso   1.000  N 
  N10      1.0000 0.78730  0.31560  0.80670  Biso   1.000  N 
  N11      1.0000 0.28730  0.18440  0.19330  Biso   1.000  N 
  N12      1.0000 0.21270  0.81560  0.69330  Biso   1.000  N 
  N13      1.0000 0.69480  0.87020  0.30090  Biso   1.000  N 
  N14      1.0000 0.80520  0.12980  0.80090  Biso   1.000  N 
  N15      1.0000 0.30520  0.37020  0.19910  Biso   1.000  N 
  N16      1.0000 0.19480  0.62980  0.69910  Biso   1.000  N 
  N17      1.0000 0.52880  0.66270  0.36830  Biso   1.000  N 
  N18      1.0000 0.97120  0.33730  0.86830  Biso   1.000  N 
  N19      1.0000 0.47120  0.16270  0.13170  Biso   1.000  N 
  N20      1.0000 0.02880  0.83730  0.63170  Biso   1.000  N 
  N21      1.0000 0.50450  0.86480  0.35660  Biso   1.000  N 
  N22      1.0000 0.99550  0.13520  0.85660  Biso   1.000  N 
  N23      1.0000 0.49550  0.36480  0.14340  Biso   1.000  N 
  N24      1.0000 0.00450  0.63520  0.64340  Biso   1.000  N 
  C1       1.0000 0.77360  0.83330  0.26980  Biso   1.000  C 
  C2       1.0000 0.72640  0.16670  0.76980  Biso   1.000  C 
  C3       1.0000 0.22640  0.33330  0.23020  Biso   1.000  C 
  C4       1.0000 0.27360  0.66670  0.73020  Biso   1.000  C 
  C5       1.0000 0.78490  0.72880  0.27430  Biso   1.000  C 
  C6       1.0000 0.71510  0.27120  0.77430  Biso   1.000  C 
  C7       1.0000 0.21510  0.22880  0.22570  Biso   1.000  C 
  C8       1.0000 0.28490  0.77120  0.72570  Biso   1.000  C 
  C9       1.0000 0.48520  0.71590  0.17260  Biso   1.000  C 
  C10      1.0000 0.01480  0.28410  0.67260  Biso   1.000  C 
  C11      1.0000 0.51480  0.21590  0.32740  Biso   1.000  C 
  C12      1.0000 0.98520  0.78410  0.82740  Biso   1.000  C 
  H1       1.0000 0.50010  0.67900  0.14090  Biso   1.000  H 
  H2       1.0000 0.99990  0.32100  0.64090  Biso   1.000  H 
  H3       1.0000 0.49990  0.17900  0.35910  Biso   1.000  H 
  H4       1.0000 0.00010  0.82100  0.85910  Biso   1.000  H 
  C13      1.0000 0.43500  0.87990  0.31970  Biso   1.000  C 
  C14      1.0000 0.06500  0.12010  0.81970  Biso   1.000  C 
  C15      1.0000 0.56500  0.37990  0.18030  Biso   1.000  C 
  C16      1.0000 0.93500  0.62010  0.68030  Biso   1.000  C 
  C17      1.0000 0.86110  0.67880  0.25090  Biso   1.000  C 
  C18      1.0000 0.63890  0.32120  0.75090  Biso   1.000  C 
  C19      1.0000 0.13890  0.17880  0.24910  Biso   1.000  C 
  C20      1.0000 0.36110  0.82120  0.74910  Biso   1.000  C 
  H5       1.0000 0.90720  0.71050  0.22820  Biso   1.000  H 
  H6       1.0000 0.59280  0.28950  0.72820  Biso   1.000  H 
  H7       1.0000 0.09280  0.21050  0.27180  Biso   1.000  H 
  H8       1.0000 0.40720  0.78950  0.77180  Biso   1.000  H 
  C21      1.0000 0.72450  0.59080  0.31750  Biso   1.000  C 
  C22      1.0000 0.77550  0.40920  0.81750  Biso   1.000  C 
  C23      1.0000 0.27550  0.09080  0.18250  Biso   1.000  C 
  C24      1.0000 0.22450  0.90920  0.68250  Biso   1.000  C 
  H9       1.0000 0.67670  0.56070  0.33980  Biso   1.000  H 
  H10      1.0000 0.82330  0.43930  0.83980  Biso   1.000  H 
  H11      1.0000 0.32330  0.06070  0.16020  Biso   1.000  H 
  H12      1.0000 0.17670  0.93930  0.66020  Biso   1.000  H 
  C25      1.0000 0.44470  0.82320  0.26550  Biso   1.000  C 
  C26      1.0000 0.05530  0.17680  0.76550  Biso   1.000  C 
  C27      1.0000 0.55530  0.32320  0.23450  Biso   1.000  C 
  C28      1.0000 0.94470  0.67680  0.73450  Biso   1.000  C 
  C29      1.0000 0.54550  0.71460  0.21840  Biso   1.000  C 
  C30      1.0000 0.95450  0.28540  0.71840  Biso   1.000  C 
  C31      1.0000 0.45450  0.21460  0.28160  Biso   1.000  C 
  C32      1.0000 0.04550  0.78540  0.78160  Biso   1.000  C 
  H13      1.0000 0.60220  0.67590  0.21710  Biso   1.000  H 
  H14      1.0000 0.89780  0.32410  0.71710  Biso   1.000  H 
  H15      1.0000 0.39780  0.17590  0.28290  Biso   1.000  H 
  H16      1.0000 0.10220  0.82410  0.78290  Biso   1.000  H 
  C33      1.0000 0.63770  0.69950  0.44630  Biso   1.000  C 
  C34      1.0000 0.86230  0.30050  0.94630  Biso   1.000  C 
  C35      1.0000 0.36230  0.19950  0.05370  Biso   1.000  C 
  C36      1.0000 0.13770  0.80050  0.55370  Biso   1.000  C 
  C37      1.0000 0.83160  0.89700  0.23980  Biso   1.000  C 
  C38      1.0000 0.66840  0.10300  0.73980  Biso   1.000  C 
  C39      1.0000 0.16840  0.39700  0.26020  Biso   1.000  C 
  C40      1.0000 0.33160  0.60300  0.76020  Biso   1.000  C 
  H17      1.0000 0.88180  0.87100  0.21740  Biso   1.000  H 
  H18      1.0000 0.61820  0.12900  0.71740  Biso   1.000  H 
  H19      1.0000 0.11820  0.37100  0.28260  Biso   1.000  H 
  H20      1.0000 0.38180  0.62900  0.78260  Biso   1.000  H 
  C41      1.0000 0.45510  0.61560  0.34680  Biso   1.000  C 
  C42      1.0000 0.04490  0.38440  0.84680  Biso   1.000  C 
  C43      1.0000 0.54490  0.11560  0.15320  Biso   1.000  C 
  C44      1.0000 0.95510  0.88440  0.65320  Biso   1.000  C 
  H21      1.0000 0.43280  0.63470  0.31140  Biso   1.000  H 
  H22      1.0000 0.06720  0.36530  0.81140  Biso   1.000  H 
  H23      1.0000 0.56720  0.13470  0.18860  Biso   1.000  H 
  H24      1.0000 0.93280  0.86530  0.68860  Biso   1.000  H 
  C45      1.0000 0.49800  0.91050  0.40900  Biso   1.000  C 
  C46      1.0000 0.00200  0.08950  0.90900  Biso   1.000  C 
  C47      1.0000 0.50200  0.41050  0.09100  Biso   1.000  C 
  C48      1.0000 0.99800  0.58950  0.59100  Biso   1.000  C 
  H25      1.0000 0.54590  0.89870  0.43650  Biso   1.000  H 
  H26      1.0000 0.95410  0.10130  0.93650  Biso   1.000  H 
  H27      1.0000 0.45410  0.39870  0.06350  Biso   1.000  H 
  H28      1.0000 0.04590  0.60130  0.56350  Biso   1.000  H 
  C49      1.0000 0.68160  0.96540  0.30030  Biso   1.000  C 
  C50      1.0000 0.81840  0.03460  0.80030  Biso   1.000  C 
  C51      1.0000 0.31840  0.46540  0.19970  Biso   1.000  C 
  C52      1.0000 0.18160  0.53460  0.69970  Biso   1.000  C 
  H29      1.0000 0.62620  0.99000  0.31910  Biso   1.000  H 
  H30      1.0000 0.87380  0.01000  0.81910  Biso   1.000  H 
  H31      1.0000 0.37380  0.49000  0.18090  Biso   1.000  H 
  H32      1.0000 0.12620  0.51000  0.68090  Biso   1.000  H 
  C53      1.0000 0.40110  0.77340  0.17420  Biso   1.000  C 
  C54      1.0000 0.09890  0.22660  0.67420  Biso   1.000  C 
  C55      1.0000 0.59890  0.27340  0.32580  Biso   1.000  C 
  C56      1.0000 0.90110  0.72660  0.82580  Biso   1.000  C 
  H33      1.0000 0.35740  0.77530  0.14380  Biso   1.000  H 
  H34      1.0000 0.14260  0.22470  0.64380  Biso   1.000  H 
  H35      1.0000 0.64260  0.27530  0.35620  Biso   1.000  H 
  H36      1.0000 0.85740  0.72470  0.85620  Biso   1.000  H 
  C57      1.0000 0.55300  0.64360  0.42420  Biso   1.000  C 
  C58      1.0000 0.94700  0.35640  0.92420  Biso   1.000  C 
  C59      1.0000 0.44700  0.14360  0.07580  Biso   1.000  C 
  C60      1.0000 0.05300  0.85640  0.57580  Biso   1.000  C 
  C61      1.0000 0.35530  0.94330  0.32850  Biso   1.000  C 
  C62      1.0000 0.14470  0.05670  0.82850  Biso   1.000  C 
  C63      1.0000 0.64470  0.44330  0.17150  Biso   1.000  C 
  C64      1.0000 0.85530  0.55670  0.67150  Biso   1.000  C 
  H37      1.0000 0.30730  0.95370  0.30090  Biso   1.000  H 
  H38      1.0000 0.19270  0.04630  0.80090  Biso   1.000  H 
  H39      1.0000 0.69270  0.45370  0.19910  Biso   1.000  H 
  H40      1.0000 0.80730  0.54630  0.69910  Biso   1.000  H 
  C65      1.0000 0.42070  0.97290  0.41960  Biso   1.000  C 
  C66      1.0000 0.07930  0.02710  0.91960  Biso   1.000  C 
  C67      1.0000 0.57930  0.47290  0.08040  Biso   1.000  C 
  C68      1.0000 0.92070  0.52710  0.58040  Biso   1.000  C 
  H41      1.0000 0.41660  0.00340  0.45450  Biso   1.000  H 
  H42      1.0000 0.08340  0.99660  0.95450  Biso   1.000  H 
  H43      1.0000 0.58340  0.50340  0.04550  Biso   1.000  H 
  H44      1.0000 0.91660  0.49660  0.54550  Biso   1.000  H 
  C69      1.0000 0.43490  0.51940  0.42940  Biso   1.000  C 
  C70      1.0000 0.06510  0.48060  0.92940  Biso   1.000  C 
  C71      1.0000 0.56510  0.01940  0.07060  Biso   1.000  C 
  C72      1.0000 0.93490  0.98060  0.57060  Biso   1.000  C 
  H45      1.0000 0.40150  0.47160  0.44960  Biso   1.000  H 
  H46      1.0000 0.09850  0.52840  0.94960  Biso   1.000  H 
  H47      1.0000 0.59850  0.97160  0.05040  Biso   1.000  H 
  H48      1.0000 0.90150  0.02840  0.55040  Biso   1.000  H 
  C73      1.0000 0.87030  0.57870  0.26120  Biso   1.000  C 
  C74      1.0000 0.62970  0.42130  0.76120  Biso   1.000  C 
  C75      1.0000 0.12970  0.07870  0.23880  Biso   1.000  C 
  C76      1.0000 0.37030  0.92130  0.73880  Biso   1.000  C 
  H49      1.0000 0.92020  0.54240  0.24400  Biso   1.000  H 
  H50      1.0000 0.57980  0.45760  0.74400  Biso   1.000  H 
  H51      1.0000 0.07980  0.04240  0.25600  Biso   1.000  H 
  H52      1.0000 0.42020  0.95760  0.75600  Biso   1.000  H 
  C77      1.0000 0.75700  0.74400  0.51450  Biso   1.000  C 
  C78      1.0000 0.74300  0.25600  0.01450  Biso   1.000  C 
  C79      1.0000 0.24300  0.24400  0.98550  Biso   1.000  C 
  C80      1.0000 0.25700  0.75600  0.48550  Biso   1.000  C 
  H53      1.0000 0.78140  0.73910  0.55110  Biso   1.000  H 
  H54      1.0000 0.71860  0.26090  0.05110  Biso   1.000  H 
  H55      1.0000 0.21860  0.23910  0.94890  Biso   1.000  H 
  H56      1.0000 0.28140  0.76090  0.44890  Biso   1.000  H 
  C81      1.0000 0.50660  0.56770  0.45310  Biso   1.000  C 
  C82      1.0000 0.99340  0.43230  0.95310  Biso   1.000  C 
  C83      1.0000 0.49340  0.06770  0.04690  Biso   1.000  C 
  C84      1.0000 0.00660  0.93230  0.54690  Biso   1.000  C 
  H57      1.0000 0.52710  0.55180  0.48940  Biso   1.000  H 
  H58      1.0000 0.97290  0.44820  0.98940  Biso   1.000  H 
  H59      1.0000 0.47290  0.05180  0.01060  Biso   1.000  H 
  H60      1.0000 0.02710  0.94820  0.51060  Biso   1.000  H 
  C85      1.0000 0.82150  0.99500  0.24040  Biso   1.000  C 
  C86      1.0000 0.67850  0.00500  0.74040  Biso   1.000  C 
  C87      1.0000 0.17850  0.49500  0.25960  Biso   1.000  C 
  C88      1.0000 0.32150  0.50500  0.75960  Biso   1.000  C 
  H61      1.0000 0.86330  0.03560  0.21980  Biso   1.000  H 
  H62      1.0000 0.63670  0.96440  0.71980  Biso   1.000  H 
  H63      1.0000 0.13670  0.53560  0.28020  Biso   1.000  H 
  H64      1.0000 0.36330  0.46440  0.78020  Biso   1.000  H 
  C89      1.0000 0.80160  0.53520  0.29820  Biso   1.000  C 
  C90      1.0000 0.69840  0.46480  0.79820  Biso   1.000  C 
  C91      1.0000 0.19840  0.03520  0.20180  Biso   1.000  C 
  C92      1.0000 0.30160  0.96480  0.70180  Biso   1.000  C 
  H65      1.0000 0.80850  0.47080  0.30920  Biso   1.000  H 
  H66      1.0000 0.69150  0.52920  0.80920  Biso   1.000  H 
  H67      1.0000 0.19150  0.97080  0.19080  Biso   1.000  H 
  H68      1.0000 0.30850  0.02920  0.69080  Biso   1.000  H 
  C93      1.0000 0.75310  0.81970  0.42700  Biso   1.000  C 
  C94      1.0000 0.74690  0.18030  0.92700  Biso   1.000  C 
  C95      1.0000 0.24690  0.31970  0.07300  Biso   1.000  C 
  C96      1.0000 0.25310  0.68030  0.57300  Biso   1.000  C 
  H69      1.0000 0.77560  0.86600  0.40150  Biso   1.000  H 
  H70      1.0000 0.72440  0.13400  0.90150  Biso   1.000  H 
  H71      1.0000 0.22440  0.36600  0.09850  Biso   1.000  H 
  H72      1.0000 0.27560  0.63400  0.59850  Biso   1.000  H 
  C97      1.0000 0.74410  0.03070  0.27380  Biso   1.000  C 
  C98      1.0000 0.75590  0.96930  0.77380  Biso   1.000  C 
  C99      1.0000 0.25590  0.53070  0.22620  Biso   1.000  C 
  C100     1.0000 0.24410  0.46930  0.72620  Biso   1.000  C 
  H73      1.0000 0.73470  0.09710  0.27820  Biso   1.000  H 
  H74      1.0000 0.76530  0.90290  0.77820  Biso   1.000  H 
  H75      1.0000 0.26530  0.59710  0.22180  Biso   1.000  H 
  H76      1.0000 0.23470  0.40290  0.72180  Biso   1.000  H 
  C101     1.0000 0.68310  0.68710  0.49880  Biso   1.000  C 
  C102     1.0000 0.81690  0.31290  0.99880  Biso   1.000  C 
  C103     1.0000 0.31690  0.18710  0.00120  Biso   1.000  C 
  C104     1.0000 0.18310  0.81290  0.50120  Biso   1.000  C 
  H77      1.0000 0.66090  0.63830  0.52280  Biso   1.000  H 
  H78      1.0000 0.83910  0.36170  0.02280  Biso   1.000  H 
  H79      1.0000 0.33910  0.13830  0.97720  Biso   1.000  H 
  H80      1.0000 0.16090  0.86170  0.47720  Biso   1.000  H 
  C105     1.0000 0.35090  0.99050  0.38060  Biso   1.000  C 
  C106     1.0000 0.14910  0.00950  0.88060  Biso   1.000  C 
  C107     1.0000 0.64910  0.49050  0.11940  Biso   1.000  C 
  C108     1.0000 0.85090  0.50950  0.61940  Biso   1.000  C 
  H81      1.0000 0.29960  0.03400  0.38800  Biso   1.000  H 
  H82      1.0000 0.20040  0.96600  0.88800  Biso   1.000  H 
  H83      1.0000 0.70040  0.53400  0.11200  Biso   1.000  H 
  H84      1.0000 0.79960  0.46600  0.61200  Biso   1.000  H 
  C109     1.0000 0.38400  0.82510  0.21920  Biso   1.000  C 
  C110     1.0000 0.11600  0.17490  0.71920  Biso   1.000  C 
  C111     1.0000 0.61600  0.32510  0.28080  Biso   1.000  C 
  C112     1.0000 0.88400  0.67490  0.78080  Biso   1.000  C 
  H85      1.0000 0.32800  0.86490  0.21980  Biso   1.000  H 
  H86      1.0000 0.17200  0.13510  0.71980  Biso   1.000  H 
  H87      1.0000 0.67200  0.36490  0.28020  Biso   1.000  H 
  H88      1.0000 0.82800  0.63510  0.78020  Biso   1.000  H 
  C113     1.0000 0.40690  0.53920  0.37230  Biso   1.000  C 
  C114     1.0000 0.09310  0.46080  0.87230  Biso   1.000  C 
  C115     1.0000 0.59310  0.03920  0.12770  Biso   1.000  C 
  C116     1.0000 0.90690  0.96080  0.62770  Biso   1.000  C 
  H89      1.0000 0.35890  0.50260  0.35360  Biso   1.000  H 
  H90      1.0000 0.14110  0.49740  0.85360  Biso   1.000  H 
  H91      1.0000 0.64110  0.00260  0.14640  Biso   1.000  H 
  H92      1.0000 0.85890  0.99740  0.64640  Biso   1.000  H 
  C117     1.0000 0.80270  0.81580  0.47470  Biso   1.000  C 
  C118     1.0000 0.69730  0.18420  0.97470  Biso   1.000  C 
  C119     1.0000 0.19730  0.31580  0.02530  Biso   1.000  C 
  C120     1.0000 0.30270  0.68420  0.52530  Biso   1.000  C 
  H93      1.0000 0.85890  0.85280  0.48270  Biso   1.000  H 
  H94      1.0000 0.64110  0.14720  0.98270  Biso   1.000  H 
  H95      1.0000 0.14110  0.35280  0.01730  Biso   1.000  H 
  H96      1.0000 0.35890  0.64720  0.51730  Biso   1.000  H 
