data_image0
_cell_length_a       15.338
_cell_length_b       22.1
_cell_length_c       16.425
_cell_angle_alpha    90
_cell_angle_beta     102.64
_cell_angle_gamma    90

_symmetry_space_group_name_H-M    "P 1"
_symmetry_int_tables_number       1

loop_
  _symmetry_equiv_pos_as_xyz
  'x, y, z'

loop_
  _atom_site_label
  _atom_site_occupancy
  _atom_site_fract_x
  _atom_site_fract_y
  _atom_site_fract_z
  _atom_site_thermal_displace_type
  _atom_site_B_iso_or_equiv
  _atom_site_type_symbol
  Mn1      1.0000 0.45457  0.49178  0.63591  Biso   1.000  Mn
  O1       1.0000 0.42035  0.44096  0.52346  Biso   1.000  O 
  C1       1.0000 0.46024  0.41296  0.47520  Biso   1.000  C 
  O2       1.0000 0.49029  0.43654  0.41917  Biso   1.000  O 
  Mn2      1.0000 0.54543  0.50822  0.36409  Biso   1.000  Mn
  O3       1.0000 0.62950  0.44187  0.33000  Biso   1.000  O 
  C2       1.0000 0.70870  0.43350  0.34380  Biso   1.000  C 
  O4       1.0000 0.76650  0.46130  0.39770  Biso   1.000  O 
  C3       1.0000 0.74540  0.38580  0.29400  Biso   1.000  C 
  C4       1.0000 0.83320  0.36760  0.31840  Biso   1.000  C 
  H1       1.0000 0.86930  0.38480  0.36550  Biso   1.000  H 
  C5       1.0000 0.86850  0.32450  0.27480  Biso   1.000  C 
  H2       1.0000 0.92750  0.31210  0.29300  Biso   1.000  H 
  C6       1.0000 0.81520  0.29947  0.20275  Biso   1.000  C 
  C7       1.0000 0.72780  0.31754  0.17720  Biso   1.000  C 
  H3       1.0000 0.69220  0.30090  0.12930  Biso   1.000  H 
  C8       1.0000 0.69230  0.36084  0.22270  Biso   1.000  C 
  H4       1.0000 0.63300  0.37290  0.20520  Biso   1.000  H 
  C9       1.0000 0.85290  0.25197  0.15400  Biso   1.000  C 
  H5       1.0000 0.80480  0.22870  0.11990  Biso   1.000  H 
  H6       1.0000 0.89130  0.22450  0.19190  Biso   1.000  H 
  O5       1.0000 0.90320  0.28261  0.10214  Biso   1.000  O 
  C10      1.0000 0.93900  0.24740  0.04854  Biso   1.000  C 
  C11      1.0000 0.98610  0.27908  0.99900  Biso   1.000  C 
  H7       1.0000 0.99130  0.32090  0.00330  Biso   1.000  H 
  C12      1.0000 0.02540  0.24769  0.94289  Biso   1.000  C 
  C13      1.0000 0.01585  0.18546  0.93428  Biso   1.000  C 
  H8       1.0000 0.04090  0.16470  0.89580  Biso   1.000  H 
  C14      1.0000 0.96827  0.15467  0.98409  Biso   1.000  C 
  C15      1.0000 0.96024  0.08704  0.97520  Biso   1.000  C 
  O6       1.0000 0.99029  0.06346  0.91917  Biso   1.000  O 
  Mn3      1.0000 0.04543  0.99178  0.86409  Biso   1.000  Mn
  O7       1.0000 0.12427  0.92513  0.81838  Biso   1.000  O 
  C16      1.0000 0.12420  0.92038  0.74200  Biso   1.000  C 
  O8       1.0000 0.07584  0.94889  0.68423  Biso   1.000  O 
  Mn4      1.0000 0.95457  0.99178  0.63591  Biso   1.000  Mn
  O9       1.0000 0.92035  0.94096  0.52346  Biso   1.000  O 
  C17      1.0000 0.96024  0.91296  0.47520  Biso   1.000  C 
  O10      1.0000 0.99029  0.93654  0.41917  Biso   1.000  O 
  Mn5      1.0000 0.04543  0.00822  0.36409  Biso   1.000  Mn
  O11      1.0000 0.12427  0.07487  0.31838  Biso   1.000  O 
  C18      1.0000 0.12420  0.07962  0.24200  Biso   1.000  C 
  O12      1.0000 0.07584  0.05111  0.18423  Biso   1.000  O 
  Mn6      1.0000 0.95457  0.00822  0.13591  Biso   1.000  Mn
  O13      1.0000 0.92035  0.05904  0.02346  Biso   1.000  O 
  O14      1.0000 0.87573  0.07487  0.18162  Biso   1.000  O 
  C19      1.0000 0.87580  0.07962  0.25800  Biso   1.000  C 
  O15      1.0000 0.92416  0.05111  0.31577  Biso   1.000  O 
  C20      1.0000 0.80909  0.12316  0.28091  Biso   1.000  C 
  C21      1.0000 0.73330  0.13936  0.22392  Biso   1.000  C 
  C22      1.0000 0.67220  0.17936  0.24530  Biso   1.000  C 
  H9       1.0000 0.62060  0.18950  0.20630  Biso   1.000  H 
  C23      1.0000 0.68770  0.20418  0.32430  Biso   1.000  C 
  C24      1.0000 0.62350  0.24896  0.34840  Biso   1.000  C 
  H10      1.0000 0.65600  0.28240  0.37930  Biso   1.000  H 
  H11      1.0000 0.58370  0.26500  0.29890  Biso   1.000  H 
  O16      1.0000 0.57325  0.21720  0.39930  Biso   1.000  O 
  C25      1.0000 0.52540  0.25231  0.44289  Biso   1.000  C 
  C26      1.0000 0.51585  0.31454  0.43428  Biso   1.000  C 
  C27      1.0000 0.46827  0.34533  0.48409  Biso   1.000  C 
  C28      1.0000 0.42983  0.31508  0.54204  Biso   1.000  C 
  H12      1.0000 0.39870  0.33630  0.57560  Biso   1.000  H 
  C29      1.0000 0.43900  0.25260  0.54854  Biso   1.000  C 
  O17      1.0000 0.40320  0.21739  0.60214  Biso   1.000  O 
  C30      1.0000 0.35290  0.24803  0.65400  Biso   1.000  C 
  H13      1.0000 0.39130  0.27550  0.69190  Biso   1.000  H 
  H14      1.0000 0.30480  0.27130  0.61990  Biso   1.000  H 
  C31      1.0000 0.31520  0.20053  0.70275  Biso   1.000  C 
  C32      1.0000 0.22780  0.18246  0.67720  Biso   1.000  C 
  H15      1.0000 0.19220  0.19910  0.62930  Biso   1.000  H 
  C33      1.0000 0.19230  0.13916  0.72270  Biso   1.000  C 
  H16      1.0000 0.13300  0.12710  0.70520  Biso   1.000  H 
  C34      1.0000 0.24540  0.11420  0.79400  Biso   1.000  C 
  C35      1.0000 0.20870  0.06650  0.84380  Biso   1.000  C 
  O18      1.0000 0.12950  0.05813  0.83000  Biso   1.000  O 
  O19      1.0000 0.26650  0.03870  0.89770  Biso   1.000  O 
  C36      1.0000 0.33320  0.13240  0.81840  Biso   1.000  C 
  C37      1.0000 0.36850  0.17550  0.77480  Biso   1.000  C 
  H17      1.0000 0.42750  0.18790  0.79300  Biso   1.000  H 
  H18      1.0000 0.36930  0.11520  0.86550  Biso   1.000  H 
  C38      1.0000 0.48610  0.22092  0.49900  Biso   1.000  C 
  H19      1.0000 0.49130  0.17910  0.50330  Biso   1.000  H 
  H20      1.0000 0.54090  0.33530  0.39580  Biso   1.000  H 
  C39      1.0000 0.76360  0.18813  0.38080  Biso   1.000  C 
  C40      1.0000 0.82450  0.14750  0.36010  Biso   1.000  C 
  H21      1.0000 0.87550  0.13680  0.39950  Biso   1.000  H 
  H22      1.0000 0.77470  0.20470  0.43410  Biso   1.000  H 
  H23      1.0000 0.72270  0.12340  0.17030  Biso   1.000  H 
  O20      1.0000 0.87050  0.94187  0.17000  Biso   1.000  O 
  C41      1.0000 0.79130  0.93350  0.15620  Biso   1.000  C 
  O21      1.0000 0.73350  0.96130  0.10230  Biso   1.000  O 
  C42      1.0000 0.75460  0.88580  0.20600  Biso   1.000  C 
  C43      1.0000 0.66680  0.86760  0.18160  Biso   1.000  C 
  C44      1.0000 0.63150  0.82450  0.22520  Biso   1.000  C 
  H24      1.0000 0.57250  0.81210  0.20700  Biso   1.000  H 
  C45      1.0000 0.68480  0.79947  0.29725  Biso   1.000  C 
  C46      1.0000 0.64710  0.75197  0.34600  Biso   1.000  C 
  H25      1.0000 0.60870  0.72450  0.30810  Biso   1.000  H 
  H26      1.0000 0.69520  0.72870  0.38010  Biso   1.000  H 
  O22      1.0000 0.59680  0.78261  0.39786  Biso   1.000  O 
  C47      1.0000 0.56100  0.74740  0.45146  Biso   1.000  C 
  C48      1.0000 0.51390  0.77908  0.50100  Biso   1.000  C 
  C49      1.0000 0.47460  0.74769  0.55711  Biso   1.000  C 
  C50      1.0000 0.48415  0.68546  0.56572  Biso   1.000  C 
  H27      1.0000 0.45910  0.66470  0.60420  Biso   1.000  H 
  C51      1.0000 0.53173  0.65467  0.51591  Biso   1.000  C 
  C52      1.0000 0.57017  0.68492  0.45796  Biso   1.000  C 
  H28      1.0000 0.60130  0.66370  0.42440  Biso   1.000  H 
  C53      1.0000 0.53976  0.58704  0.52480  Biso   1.000  C 
  O23      1.0000 0.50971  0.56346  0.58083  Biso   1.000  O 
  O24      1.0000 0.57965  0.55904  0.47654  Biso   1.000  O 
  O25      1.0000 0.42675  0.78280  0.60070  Biso   1.000  O 
  C54      1.0000 0.37650  0.75104  0.65160  Biso   1.000  C 
  H29      1.0000 0.41630  0.73500  0.70110  Biso   1.000  H 
  H30      1.0000 0.34400  0.71760  0.62070  Biso   1.000  H 
  C55      1.0000 0.31230  0.79582  0.67570  Biso   1.000  C 
  C56      1.0000 0.23640  0.81187  0.61920  Biso   1.000  C 
  H31      1.0000 0.22530  0.79530  0.56590  Biso   1.000  H 
  C57      1.0000 0.17550  0.85250  0.63990  Biso   1.000  C 
  H32      1.0000 0.12450  0.86320  0.60050  Biso   1.000  H 
  C58      1.0000 0.19091  0.87684  0.71909  Biso   1.000  C 
  C59      1.0000 0.26670  0.86064  0.77608  Biso   1.000  C 
  H33      1.0000 0.27730  0.87660  0.82970  Biso   1.000  H 
  C60      1.0000 0.32780  0.82064  0.75470  Biso   1.000  C 
  H34      1.0000 0.37940  0.81050  0.79370  Biso   1.000  H 
  H35      1.0000 0.50870  0.82090  0.49670  Biso   1.000  H 
  C61      1.0000 0.77220  0.81754  0.32280  Biso   1.000  C 
  C62      1.0000 0.80770  0.86084  0.27730  Biso   1.000  C 
  H36      1.0000 0.86700  0.87290  0.29480  Biso   1.000  H 
  H37      1.0000 0.80780  0.80090  0.37070  Biso   1.000  H 
  H38      1.0000 0.63070  0.88480  0.13450  Biso   1.000  H 
  O26      1.0000 0.00971  0.93654  0.08083  Biso   1.000  O 
  C63      1.0000 0.03976  0.91296  0.02480  Biso   1.000  C 
  O27      1.0000 0.07965  0.94096  0.97654  Biso   1.000  O 
  C64      1.0000 0.03173  0.84533  0.01591  Biso   1.000  C 
  C65      1.0000 0.07017  0.81508  0.95796  Biso   1.000  C 
  H39      1.0000 0.10130  0.83630  0.92440  Biso   1.000  H 
  C66      1.0000 0.06100  0.75260  0.95146  Biso   1.000  C 
  O28      1.0000 0.09680  0.71739  0.89786  Biso   1.000  O 
  C67      1.0000 0.14710  0.74803  0.84600  Biso   1.000  C 
  H40      1.0000 0.10870  0.77550  0.80810  Biso   1.000  H 
  H41      1.0000 0.19520  0.77130  0.88010  Biso   1.000  H 
  C68      1.0000 0.18480  0.70053  0.79725  Biso   1.000  C 
  C69      1.0000 0.27220  0.68246  0.82280  Biso   1.000  C 
  C70      1.0000 0.30770  0.63916  0.77730  Biso   1.000  C 
  C71      1.0000 0.25460  0.61420  0.70600  Biso   1.000  C 
  C72      1.0000 0.29130  0.56650  0.65620  Biso   1.000  C 
  O29      1.0000 0.37050  0.55813  0.67000  Biso   1.000  O 
  O30      1.0000 0.23350  0.53870  0.60230  Biso   1.000  O 
  C73      1.0000 0.16680  0.63240  0.68160  Biso   1.000  C 
  C74      1.0000 0.13150  0.67550  0.72520  Biso   1.000  C 
  H42      1.0000 0.07250  0.68790  0.70700  Biso   1.000  H 
  H43      1.0000 0.13070  0.61520  0.63450  Biso   1.000  H 
  H44      1.0000 0.36700  0.62710  0.79480  Biso   1.000  H 
  H45      1.0000 0.30780  0.69910  0.87070  Biso   1.000  H 
  C75      1.0000 0.01390  0.72092  0.00100  Biso   1.000  C 
  H46      1.0000 0.00870  0.67910  0.99670  Biso   1.000  H 
  C76      1.0000 0.97460  0.75231  0.05711  Biso   1.000  C 
  C77      1.0000 0.98415  0.81454  0.06572  Biso   1.000  C 
  H47      1.0000 0.95910  0.83530  0.10420  Biso   1.000  H 
  O31      1.0000 0.92675  0.71720  0.10070  Biso   1.000  O 
  C78      1.0000 0.87650  0.74896  0.15160  Biso   1.000  C 
  H48      1.0000 0.84400  0.78240  0.12070  Biso   1.000  H 
  H49      1.0000 0.91630  0.76500  0.20110  Biso   1.000  H 
  C79      1.0000 0.81230  0.70418  0.17570  Biso   1.000  C 
  C80      1.0000 0.73640  0.68813  0.11920  Biso   1.000  C 
  C81      1.0000 0.67550  0.64750  0.13990  Biso   1.000  C 
  H50      1.0000 0.62450  0.63680  0.10050  Biso   1.000  H 
  C82      1.0000 0.69091  0.62316  0.21909  Biso   1.000  C 
  C83      1.0000 0.62420  0.57962  0.24200  Biso   1.000  C 
  O32      1.0000 0.62427  0.57487  0.31838  Biso   1.000  O 
  O33      1.0000 0.57584  0.55111  0.18423  Biso   1.000  O 
  Mn7      1.0000 0.45457  0.50822  0.13591  Biso   1.000  Mn
  O34      1.0000 0.37050  0.44187  0.17000  Biso   1.000  O 
  C84      1.0000 0.29130  0.43350  0.15620  Biso   1.000  C 
  O35      1.0000 0.23350  0.46130  0.10230  Biso   1.000  O 
  C85      1.0000 0.25460  0.38580  0.20600  Biso   1.000  C 
  C86      1.0000 0.16680  0.36760  0.18160  Biso   1.000  C 
  H51      1.0000 0.13070  0.38480  0.13450  Biso   1.000  H 
  C87      1.0000 0.13150  0.32450  0.22520  Biso   1.000  C 
  C88      1.0000 0.18480  0.29947  0.29725  Biso   1.000  C 
  C89      1.0000 0.14710  0.25197  0.34600  Biso   1.000  C 
  H52      1.0000 0.10870  0.22450  0.30810  Biso   1.000  H 
  H53      1.0000 0.19520  0.22870  0.38010  Biso   1.000  H 
  O36      1.0000 0.09680  0.28261  0.39786  Biso   1.000  O 
  C90      1.0000 0.06100  0.24740  0.45146  Biso   1.000  C 
  C91      1.0000 0.01390  0.27908  0.50100  Biso   1.000  C 
  H54      1.0000 0.00870  0.32090  0.49670  Biso   1.000  H 
  C92      1.0000 0.97460  0.24769  0.55711  Biso   1.000  C 
  C93      1.0000 0.98415  0.18546  0.56572  Biso   1.000  C 
  H55      1.0000 0.95910  0.16470  0.60420  Biso   1.000  H 
  C94      1.0000 0.03173  0.15467  0.51591  Biso   1.000  C 
  C95      1.0000 0.07017  0.18492  0.45796  Biso   1.000  C 
  H56      1.0000 0.10130  0.16370  0.42440  Biso   1.000  H 
  C96      1.0000 0.03976  0.08704  0.52480  Biso   1.000  C 
  O37      1.0000 0.00971  0.06346  0.58083  Biso   1.000  O 
  O38      1.0000 0.07965  0.05904  0.47654  Biso   1.000  O 
  O39      1.0000 0.92675  0.28280  0.60070  Biso   1.000  O 
  C97      1.0000 0.87650  0.25104  0.65160  Biso   1.000  C 
  H57      1.0000 0.91630  0.23500  0.70110  Biso   1.000  H 
  H58      1.0000 0.84400  0.21760  0.62070  Biso   1.000  H 
  C98      1.0000 0.81230  0.29582  0.67570  Biso   1.000  C 
  C99      1.0000 0.73640  0.31187  0.61920  Biso   1.000  C 
  C100     1.0000 0.67550  0.35250  0.63990  Biso   1.000  C 
  H59      1.0000 0.62450  0.36320  0.60050  Biso   1.000  H 
  C101     1.0000 0.69091  0.37684  0.71909  Biso   1.000  C 
  C102     1.0000 0.62420  0.42038  0.74200  Biso   1.000  C 
  O40      1.0000 0.62427  0.42513  0.81838  Biso   1.000  O 
  Mn8      1.0000 0.54543  0.49178  0.86409  Biso   1.000  Mn
  O41      1.0000 0.42416  0.44889  0.81577  Biso   1.000  O 
  C103     1.0000 0.37580  0.42038  0.75800  Biso   1.000  C 
  O42      1.0000 0.37573  0.42513  0.68162  Biso   1.000  O 
  C104     1.0000 0.30909  0.37684  0.78091  Biso   1.000  C 
  C105     1.0000 0.23330  0.36064  0.72392  Biso   1.000  C 
  C106     1.0000 0.17220  0.32064  0.74530  Biso   1.000  C 
  H60      1.0000 0.12060  0.31050  0.70630  Biso   1.000  H 
  C107     1.0000 0.18770  0.29582  0.82430  Biso   1.000  C 
  C108     1.0000 0.12350  0.25104  0.84840  Biso   1.000  C 
  H61      1.0000 0.08370  0.23500  0.79890  Biso   1.000  H 
  H62      1.0000 0.15600  0.21760  0.87930  Biso   1.000  H 
  O43      1.0000 0.07325  0.28280  0.89930  Biso   1.000  O 
  C109     1.0000 0.26360  0.31187  0.88080  Biso   1.000  C 
  H63      1.0000 0.27470  0.29530  0.93410  Biso   1.000  H 
  C110     1.0000 0.32450  0.35250  0.86010  Biso   1.000  C 
  H64      1.0000 0.37550  0.36320  0.89950  Biso   1.000  H 
  H65      1.0000 0.22270  0.37660  0.67030  Biso   1.000  H 
  O44      1.0000 0.57965  0.44096  0.97654  Biso   1.000  O 
  C111     1.0000 0.53976  0.41296  0.02480  Biso   1.000  C 
  O45      1.0000 0.50971  0.43654  0.08083  Biso   1.000  O 
  C112     1.0000 0.53173  0.34533  0.01591  Biso   1.000  C 
  C113     1.0000 0.57017  0.31508  0.95796  Biso   1.000  C 
  C114     1.0000 0.56100  0.25260  0.95146  Biso   1.000  C 
  O46      1.0000 0.59680  0.21739  0.89786  Biso   1.000  O 
  C115     1.0000 0.64710  0.24803  0.84600  Biso   1.000  C 
  H66      1.0000 0.60870  0.27550  0.80810  Biso   1.000  H 
  H67      1.0000 0.69520  0.27130  0.88010  Biso   1.000  H 
  C116     1.0000 0.68480  0.20053  0.79725  Biso   1.000  C 
  C117     1.0000 0.77220  0.18246  0.82280  Biso   1.000  C 
  H68      1.0000 0.80780  0.19910  0.87070  Biso   1.000  H 
  C118     1.0000 0.80770  0.13916  0.77730  Biso   1.000  C 
  C119     1.0000 0.75460  0.11420  0.70600  Biso   1.000  C 
  C120     1.0000 0.79130  0.06650  0.65620  Biso   1.000  C 
  O47      1.0000 0.87050  0.05813  0.67000  Biso   1.000  O 
  O48      1.0000 0.73350  0.03870  0.60230  Biso   1.000  O 
  C121     1.0000 0.66680  0.13240  0.68160  Biso   1.000  C 
  H69      1.0000 0.63070  0.11520  0.63450  Biso   1.000  H 
  C122     1.0000 0.63150  0.17550  0.72520  Biso   1.000  C 
  H70      1.0000 0.57250  0.18790  0.70700  Biso   1.000  H 
  H71      1.0000 0.86700  0.12710  0.79480  Biso   1.000  H 
  C123     1.0000 0.51390  0.22092  0.00100  Biso   1.000  C 
  C124     1.0000 0.47460  0.25231  0.05711  Biso   1.000  C 
  C125     1.0000 0.48415  0.31454  0.06572  Biso   1.000  C 
  H72      1.0000 0.45910  0.33530  0.10420  Biso   1.000  H 
  O49      1.0000 0.42675  0.21720  0.10070  Biso   1.000  O 
  C126     1.0000 0.37650  0.24896  0.15160  Biso   1.000  C 
  H73      1.0000 0.41630  0.26500  0.20110  Biso   1.000  H 
  H74      1.0000 0.34400  0.28240  0.12070  Biso   1.000  H 
  C127     1.0000 0.31230  0.20418  0.17570  Biso   1.000  C 
  C128     1.0000 0.23640  0.18813  0.11920  Biso   1.000  C 
  C129     1.0000 0.17550  0.14750  0.13990  Biso   1.000  C 
  C130     1.0000 0.19091  0.12316  0.21909  Biso   1.000  C 
  C131     1.0000 0.26670  0.13936  0.27608  Biso   1.000  C 
  C132     1.0000 0.32780  0.17936  0.25470  Biso   1.000  C 
  H75      1.0000 0.37940  0.18950  0.29370  Biso   1.000  H 
  H76      1.0000 0.27730  0.12340  0.32970  Biso   1.000  H 
  H77      1.0000 0.12450  0.13680  0.10050  Biso   1.000  H 
  H78      1.0000 0.22530  0.20470  0.06590  Biso   1.000  H 
  H79      1.0000 0.50870  0.17910  0.99670  Biso   1.000  H 
  H80      1.0000 0.60130  0.33630  0.92440  Biso   1.000  H 
  O50      1.0000 0.49029  0.56346  0.91917  Biso   1.000  O 
  C133     1.0000 0.46024  0.58704  0.97520  Biso   1.000  C 
  O51      1.0000 0.42035  0.55904  0.02346  Biso   1.000  O 
  C134     1.0000 0.46827  0.65467  0.98409  Biso   1.000  C 
  C135     1.0000 0.51585  0.68546  0.93428  Biso   1.000  C 
  H81      1.0000 0.54090  0.66470  0.89580  Biso   1.000  H 
  C136     1.0000 0.52540  0.74769  0.94289  Biso   1.000  C 
  O52      1.0000 0.57325  0.78280  0.89930  Biso   1.000  O 
  C137     1.0000 0.62350  0.75104  0.84840  Biso   1.000  C 
  H82      1.0000 0.58370  0.73500  0.79890  Biso   1.000  H 
  H83      1.0000 0.65600  0.71760  0.87930  Biso   1.000  H 
  C138     1.0000 0.68770  0.79582  0.82430  Biso   1.000  C 
  C139     1.0000 0.76360  0.81187  0.88080  Biso   1.000  C 
  H84      1.0000 0.77470  0.79530  0.93410  Biso   1.000  H 
  C140     1.0000 0.82450  0.85250  0.86010  Biso   1.000  C 
  H85      1.0000 0.87550  0.86320  0.89950  Biso   1.000  H 
  C141     1.0000 0.80909  0.87684  0.78091  Biso   1.000  C 
  C142     1.0000 0.73330  0.86064  0.72392  Biso   1.000  C 
  H86      1.0000 0.72270  0.87660  0.67030  Biso   1.000  H 
  C143     1.0000 0.67220  0.82064  0.74530  Biso   1.000  C 
  H87      1.0000 0.62060  0.81050  0.70630  Biso   1.000  H 
  C144     1.0000 0.87580  0.92038  0.75800  Biso   1.000  C 
  O53      1.0000 0.87573  0.92513  0.68162  Biso   1.000  O 
  O54      1.0000 0.92416  0.94889  0.81577  Biso   1.000  O 
  C145     1.0000 0.48610  0.77908  0.99900  Biso   1.000  C 
  H88      1.0000 0.49130  0.82090  0.00330  Biso   1.000  H 
  C146     1.0000 0.43900  0.74740  0.04854  Biso   1.000  C 
  O55      1.0000 0.40320  0.78261  0.10214  Biso   1.000  O 
  C147     1.0000 0.35290  0.75197  0.15400  Biso   1.000  C 
  H89      1.0000 0.30480  0.72870  0.11990  Biso   1.000  H 
  H90      1.0000 0.39130  0.72450  0.19190  Biso   1.000  H 
  C148     1.0000 0.31520  0.79947  0.20275  Biso   1.000  C 
  C149     1.0000 0.22780  0.81754  0.17720  Biso   1.000  C 
  C150     1.0000 0.19230  0.86084  0.22270  Biso   1.000  C 
  H91      1.0000 0.13300  0.87290  0.20520  Biso   1.000  H 
  C151     1.0000 0.24540  0.88580  0.29400  Biso   1.000  C 
  C152     1.0000 0.20870  0.93350  0.34380  Biso   1.000  C 
  O56      1.0000 0.12950  0.94187  0.33000  Biso   1.000  O 
  O57      1.0000 0.26650  0.96130  0.39770  Biso   1.000  O 
  C153     1.0000 0.33320  0.86760  0.31840  Biso   1.000  C 
  C154     1.0000 0.36850  0.82450  0.27480  Biso   1.000  C 
  H92      1.0000 0.42750  0.81210  0.29300  Biso   1.000  H 
  H93      1.0000 0.36930  0.88480  0.36550  Biso   1.000  H 
  H94      1.0000 0.19220  0.80090  0.12930  Biso   1.000  H 
  C155     1.0000 0.42983  0.68492  0.04204  Biso   1.000  C 
  H95      1.0000 0.39870  0.66370  0.07560  Biso   1.000  H 
  O58      1.0000 0.62950  0.55813  0.83000  Biso   1.000  O 
  C156     1.0000 0.70870  0.56650  0.84380  Biso   1.000  C 
  O59      1.0000 0.76650  0.53870  0.89770  Biso   1.000  O 
  C157     1.0000 0.74540  0.61420  0.79400  Biso   1.000  C 
  C158     1.0000 0.83320  0.63240  0.81840  Biso   1.000  C 
  C159     1.0000 0.86850  0.67550  0.77480  Biso   1.000  C 
  H96      1.0000 0.92750  0.68790  0.79300  Biso   1.000  H 
  C160     1.0000 0.81520  0.70053  0.70275  Biso   1.000  C 
  C161     1.0000 0.72780  0.68246  0.67720  Biso   1.000  C 
  H97      1.0000 0.69220  0.69910  0.62930  Biso   1.000  H 
  C162     1.0000 0.69230  0.63916  0.72270  Biso   1.000  C 
  H98      1.0000 0.63300  0.62710  0.70520  Biso   1.000  H 
  C163     1.0000 0.85290  0.74803  0.65400  Biso   1.000  C 
  H99      1.0000 0.80480  0.77130  0.61990  Biso   1.000  H 
  H100     1.0000 0.89130  0.77550  0.69190  Biso   1.000  H 
  O60      1.0000 0.90320  0.71739  0.60214  Biso   1.000  O 
  C164     1.0000 0.93900  0.75260  0.54854  Biso   1.000  C 
  C165     1.0000 0.98610  0.72092  0.49900  Biso   1.000  C 
  H101     1.0000 0.99130  0.67910  0.50330  Biso   1.000  H 
  C166     1.0000 0.02540  0.75231  0.44289  Biso   1.000  C 
  C167     1.0000 0.01585  0.81454  0.43428  Biso   1.000  C 
  H102     1.0000 0.04090  0.83530  0.39580  Biso   1.000  H 
  C168     1.0000 0.96827  0.84533  0.48409  Biso   1.000  C 
  C169     1.0000 0.92983  0.81508  0.54204  Biso   1.000  C 
  H103     1.0000 0.89870  0.83630  0.57560  Biso   1.000  H 
  O61      1.0000 0.07325  0.71720  0.39930  Biso   1.000  O 
  C170     1.0000 0.12350  0.74896  0.34840  Biso   1.000  C 
  H104     1.0000 0.08370  0.76500  0.29890  Biso   1.000  H 
  H105     1.0000 0.15600  0.78240  0.37930  Biso   1.000  H 
  C171     1.0000 0.18770  0.70418  0.32430  Biso   1.000  C 
  C172     1.0000 0.26360  0.68813  0.38080  Biso   1.000  C 
  H106     1.0000 0.27470  0.70470  0.43410  Biso   1.000  H 
  C173     1.0000 0.32450  0.64750  0.36010  Biso   1.000  C 
  C174     1.0000 0.30909  0.62316  0.28091  Biso   1.000  C 
  C175     1.0000 0.23330  0.63936  0.22392  Biso   1.000  C 
  C176     1.0000 0.17220  0.67936  0.24530  Biso   1.000  C 
  H107     1.0000 0.12060  0.68950  0.20630  Biso   1.000  H 
  H108     1.0000 0.22270  0.62340  0.17030  Biso   1.000  H 
  C177     1.0000 0.37580  0.57962  0.25800  Biso   1.000  C 
  O62      1.0000 0.37573  0.57487  0.18162  Biso   1.000  O 
  O63      1.0000 0.42416  0.55111  0.31577  Biso   1.000  O 
  H109     1.0000 0.37550  0.63680  0.39950  Biso   1.000  H 
  H110     1.0000 0.86930  0.61520  0.86550  Biso   1.000  H 
  O64      1.0000 0.57584  0.44889  0.68423  Biso   1.000  O 
  C178     1.0000 0.76670  0.36064  0.77608  Biso   1.000  C 
  H111     1.0000 0.77730  0.37660  0.82970  Biso   1.000  H 
  C179     1.0000 0.82780  0.32064  0.75470  Biso   1.000  C 
  H112     1.0000 0.87940  0.31050  0.79370  Biso   1.000  H 
  H113     1.0000 0.72530  0.29530  0.56590  Biso   1.000  H 
  C180     1.0000 0.27220  0.31754  0.32280  Biso   1.000  C 
  C181     1.0000 0.30770  0.36084  0.27730  Biso   1.000  C 
  H114     1.0000 0.36700  0.37290  0.29480  Biso   1.000  H 
  H115     1.0000 0.30780  0.30090  0.37070  Biso   1.000  H 
  H116     1.0000 0.07250  0.31210  0.20700  Biso   1.000  H 
  C182     1.0000 0.76670  0.63936  0.27608  Biso   1.000  C 
  H117     1.0000 0.77730  0.62340  0.32970  Biso   1.000  H 
  C183     1.0000 0.82780  0.67936  0.25470  Biso   1.000  C 
  H118     1.0000 0.87940  0.68950  0.29370  Biso   1.000  H 
  H119     1.0000 0.72530  0.70470  0.06590  Biso   1.000  H 
  C184     1.0000 0.92983  0.18492  0.04204  Biso   1.000  C 
  H120     1.0000 0.89870  0.16370  0.07560  Biso   1.000  H 
