data_image0
_cell_length_a       21.153
_cell_length_b       14.08
_cell_length_c       20.595
_cell_angle_alpha    90
_cell_angle_beta     98.143
_cell_angle_gamma    90

_symmetry_space_group_name_H-M    "P 1"
_symmetry_int_tables_number       1

loop_
  _symmetry_equiv_pos_as_xyz
  'x, y, z'

loop_
  _atom_site_label
  _atom_site_occupancy
  _atom_site_fract_x
  _atom_site_fract_y
  _atom_site_fract_z
  _atom_site_thermal_displace_type
  _atom_site_B_iso_or_equiv
  _atom_site_type_symbol
  Zn1      1.0000 0.73901  0.00036  0.87411  Biso   1.000  Zn
  O1       1.0000 0.77430  0.15250  0.90420  Biso   1.000  O 
  C1       1.0000 0.82180  0.19570  0.89020  Biso   1.000  C 
  C2       1.0000 0.88620  0.17740  0.92360  Biso   1.000  C 
  C3       1.0000 0.89610  0.13920  0.98600  Biso   1.000  C 
  C4       1.0000 0.95670  0.12560  0.01950  Biso   1.000  C 
  H1       1.0000 0.96220  0.10460  0.06270  Biso   1.000  H 
  C5       1.0000 0.00880  0.14330  0.98860  Biso   1.000  C 
  O2       1.0000 0.07100  0.12930  0.01880  Biso   1.000  O 
  C6       1.0000 0.08190  0.08740  0.07900  Biso   1.000  C 
  C7       1.0000 0.15040  0.05630  0.09590  Biso   1.000  C 
  Zn2      1.0000 0.26099  0.99964  0.12589  Biso   1.000  Zn
  O3       1.0000 0.22570  0.84750  0.09580  Biso   1.000  O 
  C8       1.0000 0.17820  0.80430  0.10980  Biso   1.000  C 
  C9       1.0000 0.11380  0.82260  0.07640  Biso   1.000  C 
  C10      1.0000 0.10390  0.86080  0.01400  Biso   1.000  C 
  C11      1.0000 0.04330  0.87440  0.98050  Biso   1.000  C 
  H2       1.0000 0.03780  0.89540  0.93730  Biso   1.000  H 
  C12      1.0000 0.99120  0.85670  0.01140  Biso   1.000  C 
  O4       1.0000 0.92900  0.87070  0.98120  Biso   1.000  O 
  C13      1.0000 0.91810  0.91260  0.92100  Biso   1.000  C 
  H3       1.0000 0.92840  0.86810  0.88810  Biso   1.000  H 
  H4       1.0000 0.94590  0.96730  0.92040  Biso   1.000  H 
  C14      1.0000 0.84960  0.94370  0.90410  Biso   1.000  C 
  O5       1.0000 0.81412  0.94750  0.94690  Biso   1.000  O 
  O6       1.0000 0.83040  0.96870  0.84590  Biso   1.000  O 
  C15      1.0000 0.99800  0.80750  0.06880  Biso   1.000  C 
  H5       1.0000 0.96220  0.78430  0.08520  Biso   1.000  H 
  C16      1.0000 0.05890  0.79220  0.10290  Biso   1.000  C 
  H6       1.0000 0.06350  0.76180  0.14340  Biso   1.000  H 
  H7       1.0000 0.13900  0.87780  0.99400  Biso   1.000  H 
  O7       1.0000 0.18390  0.74820  0.16010  Biso   1.000  O 
  Zn3      1.0000 0.30236  0.78331  0.14302  Biso   1.000  Zn
  N1       1.0000 0.30470  0.64110  0.13990  Biso   1.000  N 
  C17      1.0000 0.32820  0.59230  0.19390  Biso   1.000  C 
  H8       1.0000 0.34430  0.62540  0.23170  Biso   1.000  H 
  C18      1.0000 0.32910  0.49440  0.19460  Biso   1.000  C 
  H9       1.0000 0.34480  0.46220  0.23290  Biso   1.000  H 
  C19      1.0000 0.30660  0.44370  0.13790  Biso   1.000  C 
  C20      1.0000 0.28110  0.49570  0.08410  Biso   1.000  C 
  H10      1.0000 0.26350  0.46460  0.04590  Biso   1.000  H 
  C21      1.0000 0.28140  0.59190  0.08600  Biso   1.000  C 
  H11      1.0000 0.26470  0.62510  0.04850  Biso   1.000  H 
  C22      1.0000 0.30730  0.33800  0.13720  Biso   1.000  C 
  C23      1.0000 0.31090  0.28770  0.08120  Biso   1.000  C 
  C24      1.0000 0.30560  0.19080  0.08140  Biso   1.000  C 
  H12      1.0000 0.31020  0.15790  0.04320  Biso   1.000  H 
  N2       1.0000 0.29400  0.14050  0.13470  Biso   1.000  N 
  C25      1.0000 0.29150  0.18900  0.19020  Biso   1.000  C 
  H13      1.0000 0.28480  0.15580  0.22760  Biso   1.000  H 
  C26      1.0000 0.29830  0.28730  0.19390  Biso   1.000  C 
  H14      1.0000 0.29700  0.31890  0.23330  Biso   1.000  H 
  H15      1.0000 0.31700  0.31930  0.04300  Biso   1.000  H 
  O8       1.0000 0.32993  0.81570  0.23530  Biso   1.000  O 
  C27      1.0000 0.32700  0.89980  0.25370  Biso   1.000  C 
  C28      1.0000 0.35140  0.92190  0.32330  Biso   1.000  C 
  C29      1.0000 0.36980  0.84770  0.36720  Biso   1.000  C 
  C30      1.0000 0.39500  0.86720  0.43210  Biso   1.000  C 
  H16      1.0000 0.40710  0.81760  0.46100  Biso   1.000  H 
  C31      1.0000 0.40190  0.95940  0.45350  Biso   1.000  C 
  C32      1.0000 0.38240  0.03450  0.41100  Biso   1.000  C 
  H17      1.0000 0.38570  0.09700  0.42550  Biso   1.000  H 
  C33      1.0000 0.35840  0.01360  0.34700  Biso   1.000  C 
  H18      1.0000 0.34620  0.06360  0.31840  Biso   1.000  H 
  O9       1.0000 0.43080  0.96910  0.51667  Biso   1.000  O 
  C34      1.0000 0.43400  0.06100  0.54550  Biso   1.000  C 
  H19      1.0000 0.44270  0.10730  0.51310  Biso   1.000  H 
  H20      1.0000 0.46910  0.06270  0.58130  Biso   1.000  H 
  C35      1.0000 0.37180  0.08860  0.57180  Biso   1.000  C 
  O10      1.0000 0.37293  0.16850  0.59842  Biso   1.000  O 
  Zn4      1.0000 0.30236  0.21669  0.64302  Biso   1.000  Zn
  O11      1.0000 0.22570  0.15250  0.59580  Biso   1.000  O 
  C36      1.0000 0.17820  0.19570  0.60980  Biso   1.000  C 
  C37      1.0000 0.11380  0.17740  0.57640  Biso   1.000  C 
  C38      1.0000 0.10390  0.13920  0.51400  Biso   1.000  C 
  H21      1.0000 0.13900  0.12220  0.49400  Biso   1.000  H 
  C39      1.0000 0.04330  0.12560  0.48050  Biso   1.000  C 
  H22      1.0000 0.03780  0.10460  0.43730  Biso   1.000  H 
  C40      1.0000 0.99120  0.14330  0.51140  Biso   1.000  C 
  O12      1.0000 0.92900  0.12930  0.48120  Biso   1.000  O 
  C41      1.0000 0.91810  0.08740  0.42100  Biso   1.000  C 
  C42      1.0000 0.84960  0.05630  0.40410  Biso   1.000  C 
  Zn5      1.0000 0.73901  0.99964  0.37411  Biso   1.000  Zn
  O13      1.0000 0.67313  0.96900  0.43388  Biso   1.000  O 
  C43      1.0000 0.62820  0.91140  0.42820  Biso   1.000  C 
  O14      1.0000 0.62707  0.83150  0.40158  Biso   1.000  O 
  Zn6      1.0000 0.69764  0.78331  0.35698  Biso   1.000  Zn
  O15      1.0000 0.67007  0.81570  0.26470  Biso   1.000  O 
  C44      1.0000 0.67300  0.89980  0.24630  Biso   1.000  C 
  C45      1.0000 0.64860  0.92190  0.17670  Biso   1.000  C 
  C46      1.0000 0.63020  0.84770  0.13280  Biso   1.000  C 
  C47      1.0000 0.60500  0.86720  0.06790  Biso   1.000  C 
  H23      1.0000 0.59290  0.81760  0.03900  Biso   1.000  H 
  C48      1.0000 0.59810  0.95940  0.04650  Biso   1.000  C 
  C49      1.0000 0.61760  0.03450  0.08900  Biso   1.000  C 
  C50      1.0000 0.64160  0.01360  0.15300  Biso   1.000  C 
  H24      1.0000 0.65380  0.06360  0.18160  Biso   1.000  H 
  H25      1.0000 0.61430  0.09700  0.07450  Biso   1.000  H 
  O16      1.0000 0.56920  0.96910  0.98333  Biso   1.000  O 
  C51      1.0000 0.56600  0.06100  0.95450  Biso   1.000  C 
  H26      1.0000 0.53090  0.06270  0.91870  Biso   1.000  H 
  H27      1.0000 0.55730  0.10730  0.98690  Biso   1.000  H 
  C52      1.0000 0.62820  0.08860  0.92820  Biso   1.000  C 
  O17      1.0000 0.62707  0.16850  0.90158  Biso   1.000  O 
  Zn7      1.0000 0.69764  0.21669  0.85698  Biso   1.000  Zn
  O18      1.0000 0.67007  0.18430  0.76470  Biso   1.000  O 
  C53      1.0000 0.67300  0.10020  0.74630  Biso   1.000  C 
  C54      1.0000 0.64860  0.07810  0.67670  Biso   1.000  C 
  C55      1.0000 0.63020  0.15230  0.63280  Biso   1.000  C 
  C56      1.0000 0.60500  0.13280  0.56790  Biso   1.000  C 
  C57      1.0000 0.59810  0.04060  0.54650  Biso   1.000  C 
  O19      1.0000 0.56920  0.03090  0.48333  Biso   1.000  O 
  C58      1.0000 0.56600  0.93900  0.45450  Biso   1.000  C 
  H28      1.0000 0.53090  0.93730  0.41870  Biso   1.000  H 
  H29      1.0000 0.55730  0.89270  0.48690  Biso   1.000  H 
  C59      1.0000 0.61760  0.96550  0.58900  Biso   1.000  C 
  C60      1.0000 0.64160  0.98640  0.65300  Biso   1.000  C 
  H30      1.0000 0.65380  0.93640  0.68160  Biso   1.000  H 
  H31      1.0000 0.61430  0.90300  0.57450  Biso   1.000  H 
  H32      1.0000 0.59290  0.18240  0.53900  Biso   1.000  H 
  H33      1.0000 0.63480  0.21490  0.64700  Biso   1.000  H 
  O20      1.0000 0.69537  0.03090  0.78288  Biso   1.000  O 
  N3       1.0000 0.69530  0.35890  0.86010  Biso   1.000  N 
  C61      1.0000 0.67180  0.40770  0.80610  Biso   1.000  C 
  H34      1.0000 0.65570  0.37460  0.76830  Biso   1.000  H 
  C62      1.0000 0.67090  0.50560  0.80540  Biso   1.000  C 
  H35      1.0000 0.65520  0.53780  0.76710  Biso   1.000  H 
  C63      1.0000 0.69340  0.55630  0.86210  Biso   1.000  C 
  C64      1.0000 0.71890  0.50430  0.91590  Biso   1.000  C 
  H36      1.0000 0.73650  0.53540  0.95410  Biso   1.000  H 
  C65      1.0000 0.71860  0.40810  0.91400  Biso   1.000  C 
  H37      1.0000 0.73530  0.37490  0.95150  Biso   1.000  H 
  C66      1.0000 0.69270  0.66200  0.86280  Biso   1.000  C 
  C67      1.0000 0.68910  0.71230  0.91880  Biso   1.000  C 
  H38      1.0000 0.68300  0.68070  0.95700  Biso   1.000  H 
  C68      1.0000 0.69440  0.80920  0.91860  Biso   1.000  C 
  H39      1.0000 0.68980  0.84210  0.95680  Biso   1.000  H 
  N4       1.0000 0.70600  0.85950  0.86530  Biso   1.000  N 
  C69      1.0000 0.70850  0.81100  0.80980  Biso   1.000  C 
  C70      1.0000 0.70170  0.71270  0.80610  Biso   1.000  C 
  H40      1.0000 0.70300  0.68110  0.76670  Biso   1.000  H 
  H41      1.0000 0.71520  0.84420  0.77240  Biso   1.000  H 
  O21      1.0000 0.67313  0.03100  0.93388  Biso   1.000  O 
  H42      1.0000 0.63480  0.78510  0.14700  Biso   1.000  H 
  O22      1.0000 0.69537  0.96910  0.28288  Biso   1.000  O 
  N5       1.0000 0.69530  0.64110  0.36010  Biso   1.000  N 
  C71      1.0000 0.67180  0.59230  0.30610  Biso   1.000  C 
  H43      1.0000 0.65570  0.62540  0.26830  Biso   1.000  H 
  C72      1.0000 0.67090  0.49440  0.30540  Biso   1.000  C 
  H44      1.0000 0.65520  0.46220  0.26710  Biso   1.000  H 
  C73      1.0000 0.69340  0.44370  0.36210  Biso   1.000  C 
  C74      1.0000 0.71890  0.49570  0.41590  Biso   1.000  C 
  H45      1.0000 0.73650  0.46460  0.45410  Biso   1.000  H 
  C75      1.0000 0.71860  0.59190  0.41400  Biso   1.000  C 
  H46      1.0000 0.73530  0.62510  0.45150  Biso   1.000  H 
  C76      1.0000 0.69270  0.33800  0.36280  Biso   1.000  C 
  C77      1.0000 0.68910  0.28770  0.41880  Biso   1.000  C 
  C78      1.0000 0.69440  0.19080  0.41860  Biso   1.000  C 
  H47      1.0000 0.68980  0.15790  0.45680  Biso   1.000  H 
  N6       1.0000 0.70600  0.14050  0.36530  Biso   1.000  N 
  C79      1.0000 0.70850  0.18900  0.30980  Biso   1.000  C 
  H48      1.0000 0.71520  0.15580  0.27240  Biso   1.000  H 
  C80      1.0000 0.70170  0.28730  0.30610  Biso   1.000  C 
  H49      1.0000 0.70300  0.31890  0.26670  Biso   1.000  H 
  H50      1.0000 0.68300  0.31930  0.45700  Biso   1.000  H 
  O23      1.0000 0.77430  0.84750  0.40420  Biso   1.000  O 
  C81      1.0000 0.82180  0.80430  0.39020  Biso   1.000  C 
  C82      1.0000 0.88620  0.82260  0.42360  Biso   1.000  C 
  C83      1.0000 0.94110  0.79220  0.39710  Biso   1.000  C 
  H51      1.0000 0.93650  0.76180  0.35660  Biso   1.000  H 
  C84      1.0000 0.00200  0.80750  0.43120  Biso   1.000  C 
  H52      1.0000 0.03780  0.78430  0.41480  Biso   1.000  H 
  C85      1.0000 0.00880  0.85670  0.48860  Biso   1.000  C 
  O24      1.0000 0.07100  0.87070  0.51880  Biso   1.000  O 
  C86      1.0000 0.08190  0.91260  0.57900  Biso   1.000  C 
  C87      1.0000 0.15040  0.94370  0.59590  Biso   1.000  C 
  Zn8      1.0000 0.26099  0.00036  0.62589  Biso   1.000  Zn
  O25      1.0000 0.30463  0.03090  0.71712  Biso   1.000  O 
  C88      1.0000 0.32700  0.10020  0.75370  Biso   1.000  C 
  C89      1.0000 0.35140  0.07810  0.82330  Biso   1.000  C 
  C90      1.0000 0.36980  0.15230  0.86720  Biso   1.000  C 
  H53      1.0000 0.36520  0.21490  0.85300  Biso   1.000  H 
  C91      1.0000 0.39500  0.13280  0.93210  Biso   1.000  C 
  C92      1.0000 0.40190  0.04060  0.95350  Biso   1.000  C 
  O26      1.0000 0.43080  0.03090  0.01667  Biso   1.000  O 
  C93      1.0000 0.43400  0.93900  0.04550  Biso   1.000  C 
  C94      1.0000 0.37180  0.91140  0.07180  Biso   1.000  C 
  O27      1.0000 0.37293  0.83150  0.09842  Biso   1.000  O 
  O28      1.0000 0.32687  0.96900  0.06612  Biso   1.000  O 
  H54      1.0000 0.44270  0.89270  0.01310  Biso   1.000  H 
  H55      1.0000 0.46910  0.93730  0.08130  Biso   1.000  H 
  C95      1.0000 0.38240  0.96550  0.91100  Biso   1.000  C 
  C96      1.0000 0.35840  0.98640  0.84700  Biso   1.000  C 
  H56      1.0000 0.34620  0.93640  0.81840  Biso   1.000  H 
  H57      1.0000 0.38570  0.90300  0.92550  Biso   1.000  H 
  H58      1.0000 0.40710  0.18240  0.96100  Biso   1.000  H 
  O29      1.0000 0.32993  0.18430  0.73530  Biso   1.000  O 
  O30      1.0000 0.32687  0.03100  0.56612  Biso   1.000  O 
  O31      1.0000 0.18588  0.94750  0.55310  Biso   1.000  O 
  O32      1.0000 0.16960  0.96870  0.65410  Biso   1.000  O 
  N7       1.0000 0.29400  0.85950  0.63470  Biso   1.000  N 
  C97      1.0000 0.30560  0.80920  0.58140  Biso   1.000  C 
  H59      1.0000 0.31020  0.84210  0.54320  Biso   1.000  H 
  C98      1.0000 0.31090  0.71230  0.58120  Biso   1.000  C 
  H60      1.0000 0.31700  0.68070  0.54300  Biso   1.000  H 
  C99      1.0000 0.30730  0.66200  0.63720  Biso   1.000  C 
  C100     1.0000 0.30660  0.55630  0.63790  Biso   1.000  C 
  C101     1.0000 0.28110  0.50430  0.58410  Biso   1.000  C 
  H61      1.0000 0.26350  0.53540  0.54590  Biso   1.000  H 
  C102     1.0000 0.28140  0.40810  0.58600  Biso   1.000  C 
  H62      1.0000 0.26470  0.37490  0.54850  Biso   1.000  H 
  N8       1.0000 0.30470  0.35890  0.63990  Biso   1.000  N 
  C103     1.0000 0.32820  0.40770  0.69390  Biso   1.000  C 
  H63      1.0000 0.34430  0.37460  0.73170  Biso   1.000  H 
  C104     1.0000 0.32910  0.50560  0.69460  Biso   1.000  C 
  H64      1.0000 0.34480  0.53780  0.73290  Biso   1.000  H 
  C105     1.0000 0.29830  0.71270  0.69390  Biso   1.000  C 
  H65      1.0000 0.29700  0.68110  0.73330  Biso   1.000  H 
  C106     1.0000 0.29150  0.81100  0.69020  Biso   1.000  C 
  H66      1.0000 0.28480  0.84420  0.72760  Biso   1.000  H 
  H67      1.0000 0.07160  0.86810  0.61190  Biso   1.000  H 
  H68      1.0000 0.05410  0.96730  0.57960  Biso   1.000  H 
  C107     1.0000 0.95670  0.87440  0.51950  Biso   1.000  C 
  C108     1.0000 0.89610  0.86080  0.48600  Biso   1.000  C 
  H69      1.0000 0.86100  0.87780  0.50600  Biso   1.000  H 
  H70      1.0000 0.96220  0.89540  0.56270  Biso   1.000  H 
  O33      1.0000 0.81610  0.74820  0.33990  Biso   1.000  O 
  O34      1.0000 0.81412  0.05250  0.44690  Biso   1.000  O 
  O35      1.0000 0.83040  0.03130  0.34590  Biso   1.000  O 
  H71      1.0000 0.94590  0.03270  0.42040  Biso   1.000  H 
  H72      1.0000 0.92840  0.13190  0.38810  Biso   1.000  H 
  C109     1.0000 0.99800  0.19250  0.56880  Biso   1.000  C 
  H73      1.0000 0.96220  0.21570  0.58520  Biso   1.000  H 
  C110     1.0000 0.05890  0.20780  0.60290  Biso   1.000  C 
  H74      1.0000 0.06350  0.23820  0.64340  Biso   1.000  H 
  O36      1.0000 0.18390  0.25180  0.66010  Biso   1.000  O 
  H75      1.0000 0.36520  0.78510  0.35300  Biso   1.000  H 
  O37      1.0000 0.30463  0.96910  0.21712  Biso   1.000  O 
  O38      1.0000 0.18588  0.05250  0.05310  Biso   1.000  O 
  O39      1.0000 0.16960  0.03130  0.15410  Biso   1.000  O 
  H76      1.0000 0.05410  0.03270  0.07960  Biso   1.000  H 
  H77      1.0000 0.07160  0.13190  0.11190  Biso   1.000  H 
  C111     1.0000 0.00200  0.19250  0.93120  Biso   1.000  C 
  H78      1.0000 0.03780  0.21570  0.91480  Biso   1.000  H 
  C112     1.0000 0.94110  0.20780  0.89710  Biso   1.000  C 
  H79      1.0000 0.93650  0.23820  0.85660  Biso   1.000  H 
  H80      1.0000 0.86100  0.12220  0.00600  Biso   1.000  H 
  O40      1.0000 0.81610  0.25180  0.83990  Biso   1.000  O 
