data_image0
_cell_length_a       13.555
_cell_length_b       13.991
_cell_length_c       16.449
_cell_angle_alpha    90
_cell_angle_beta     90
_cell_angle_gamma    90

_symmetry_space_group_name_H-M    "P 1"
_symmetry_int_tables_number       1

loop_
  _symmetry_equiv_pos_as_xyz
  'x, y, z'

loop_
  _atom_site_label
  _atom_site_occupancy
  _atom_site_fract_x
  _atom_site_fract_y
  _atom_site_fract_z
  _atom_site_thermal_displace_type
  _atom_site_B_iso_or_equiv
  _atom_site_type_symbol
  Ag1      1.0000 0.99901  0.09272  0.05459  Biso   1.000  Ag
  N1       1.0000 0.83920  0.10180  0.05960  Biso   1.000  N 
  C1       1.0000 0.79290  0.09940  0.13200  Biso   1.000  C 
  C2       1.0000 0.69430  0.10030  0.13840  Biso   1.000  C 
  H1       1.0000 0.66600  0.09800  0.19000  Biso   1.000  H 
  C3       1.0000 0.63390  0.10450  0.07150  Biso   1.000  C 
  C4       1.0000 0.52230  0.10120  0.08180  Biso   1.000  C 
  C5       1.0000 0.46550  0.17440  0.03780  Biso   1.000  C 
  H2       1.0000 0.48000  0.23700  0.06100  Biso   1.000  H 
  C6       1.0000 0.35820  0.15860  0.04040  Biso   1.000  C 
  C7       1.0000 0.30640  0.15180  0.11470  Biso   1.000  C 
  C8       1.0000 0.20810  0.13630  0.11510  Biso   1.000  C 
  H3       1.0000 0.17600  0.13000  0.16500  Biso   1.000  H 
  N2       1.0000 0.15400  0.13000  0.04780  Biso   1.000  N 
  C9       1.0000 0.20140  0.13970  0.97840  Biso   1.000  C 
  H4       1.0000 0.16500  0.13800  0.93100  Biso   1.000  H 
  C10      1.0000 0.30240  0.15220  0.97270  Biso   1.000  C 
  H5       1.0000 0.33200  0.15600  0.92200  Biso   1.000  H 
  H6       1.0000 0.34000  0.15800  0.16400  Biso   1.000  H 
  H7       1.0000 0.48700  0.17600  0.98100  Biso   1.000  H 
  H8       1.0000 0.49900  0.03900  0.06400  Biso   1.000  H 
  H9       1.0000 0.50700  0.10700  0.13900  Biso   1.000  H 
  C11      1.0000 0.68120  0.10870  0.99750  Biso   1.000  C 
  H10      1.0000 0.64300  0.11200  0.95000  Biso   1.000  H 
  C12      1.0000 0.78290  0.10810  0.99260  Biso   1.000  C 
  H11      1.0000 0.81300  0.11200  0.94200  Biso   1.000  H 
  H12      1.0000 0.83100  0.09700  0.17900  Biso   1.000  H 
  Ag2      1.0000 0.00099  0.90728  0.94541  Biso   1.000  Ag
  N3       1.0000 0.16080  0.89820  0.94040  Biso   1.000  N 
  C13      1.0000 0.20710  0.90060  0.86800  Biso   1.000  C 
  H13      1.0000 0.16900  0.90300  0.82100  Biso   1.000  H 
  C14      1.0000 0.30570  0.89970  0.86160  Biso   1.000  C 
  H14      1.0000 0.33400  0.90200  0.81000  Biso   1.000  H 
  C15      1.0000 0.36610  0.89550  0.92850  Biso   1.000  C 
  C16      1.0000 0.47770  0.89880  0.91820  Biso   1.000  C 
  H15      1.0000 0.49300  0.89300  0.86100  Biso   1.000  H 
  C17      1.0000 0.53450  0.82560  0.96220  Biso   1.000  C 
  H16      1.0000 0.52000  0.76300  0.93900  Biso   1.000  H 
  C18      1.0000 0.64180  0.84140  0.95960  Biso   1.000  C 
  C19      1.0000 0.69360  0.84820  0.88530  Biso   1.000  C 
  H17      1.0000 0.66000  0.84200  0.83600  Biso   1.000  H 
  C20      1.0000 0.79190  0.86370  0.88490  Biso   1.000  C 
  H18      1.0000 0.82400  0.87000  0.83500  Biso   1.000  H 
  N4       1.0000 0.84600  0.87000  0.95220  Biso   1.000  N 
  C21      1.0000 0.79860  0.86030  0.02160  Biso   1.000  C 
  H19      1.0000 0.83500  0.86200  0.06900  Biso   1.000  H 
  C22      1.0000 0.69760  0.84780  0.02730  Biso   1.000  C 
  H20      1.0000 0.66800  0.84400  0.07800  Biso   1.000  H 
  H21      1.0000 0.51300  0.82400  0.01900  Biso   1.000  H 
  H22      1.0000 0.50100  0.96100  0.93600  Biso   1.000  H 
  C23      1.0000 0.31880  0.89130  0.00250  Biso   1.000  C 
  H23      1.0000 0.35700  0.88800  0.05000  Biso   1.000  H 
  C24      1.0000 0.21710  0.89190  0.00740  Biso   1.000  C 
  H24      1.0000 0.18700  0.88800  0.05800  Biso   1.000  H 
