data_image0
_cell_length_a       7.884
_cell_length_b       12.504
_cell_length_c       11.077
_cell_angle_alpha    90
_cell_angle_beta     108.05
_cell_angle_gamma    90

_symmetry_space_group_name_H-M    "P 1"
_symmetry_int_tables_number       1

loop_
  _symmetry_equiv_pos_as_xyz
  'x, y, z'

loop_
  _atom_site_label
  _atom_site_occupancy
  _atom_site_fract_x
  _atom_site_fract_y
  _atom_site_fract_z
  _atom_site_thermal_displace_type
  _atom_site_B_iso_or_equiv
  _atom_site_type_symbol
  Pb1      1.0000 0.17030  0.87860  0.47700  Biso   1.000  Pb
  N1       1.0000 0.31090  0.97690  0.34210  Biso   1.000  N 
  S1       1.0000 0.49140  0.93490  0.33300  Biso   1.000  S 
  C1       1.0000 0.45560  0.89320  0.17210  Biso   1.000  C 
  C2       1.0000 0.27900  0.88680  0.09310  Biso   1.000  C 
  H1       1.0000 0.17280  0.89800  0.13500  Biso   1.000  H 
  C3       1.0000 0.24030  0.86380  0.96520  Biso   1.000  C 
  H2       1.0000 0.10150  0.85660  0.90640  Biso   1.000  H 
  C4       1.0000 0.37450  0.85130  0.91040  Biso   1.000  C 
  H3       1.0000 0.34160  0.83910  0.80850  Biso   1.000  H 
  C5       1.0000 0.55080  0.85830  0.98670  Biso   1.000  C 
  H4       1.0000 0.65820  0.85000  0.94590  Biso   1.000  H 
  C6       1.0000 0.58810  0.87690  0.11460  Biso   1.000  C 
  N2       1.0000 0.77830  0.87640  0.19050  Biso   1.000  N 
  O1       1.0000 0.81990  0.84140  0.29780  Biso   1.000  O 
  O2       1.0000 0.88600  0.90470  0.13800  Biso   1.000  O 
  O3       1.0000 0.54010  0.84290  0.41420  Biso   1.000  O 
  O4       1.0000 0.62730  0.01800  0.34800  Biso   1.000  O 
  Pb2      1.0000 0.82970  0.12140  0.52300  Biso   1.000  Pb
  N3       1.0000 0.68910  0.02310  0.65790  Biso   1.000  N 
  S2       1.0000 0.50860  0.06510  0.66700  Biso   1.000  S 
  O5       1.0000 0.45990  0.15710  0.58580  Biso   1.000  O 
  C7       1.0000 0.54440  0.10680  0.82790  Biso   1.000  C 
  C8       1.0000 0.41190  0.12310  0.88540  Biso   1.000  C 
  N4       1.0000 0.22170  0.12360  0.80950  Biso   1.000  N 
  O6       1.0000 0.18010  0.15860  0.70220  Biso   1.000  O 
  O7       1.0000 0.11400  0.09530  0.86200  Biso   1.000  O 
  C9       1.0000 0.44920  0.14170  0.01330  Biso   1.000  C 
  H5       1.0000 0.34180  0.15000  0.05410  Biso   1.000  H 
  C10      1.0000 0.62550  0.14870  0.08960  Biso   1.000  C 
  C11      1.0000 0.75970  0.13620  0.03480  Biso   1.000  C 
  H6       1.0000 0.89850  0.14340  0.09360  Biso   1.000  H 
  C12      1.0000 0.72100  0.11320  0.90690  Biso   1.000  C 
  H7       1.0000 0.82720  0.10200  0.86500  Biso   1.000  H 
  H8       1.0000 0.65840  0.16090  0.19150  Biso   1.000  H 
  O8       1.0000 0.37270  0.98200  0.65200  Biso   1.000  O 
  C13      1.0000 0.74600  0.91540  0.70170  Biso   1.000  C 
  H9       1.0000 0.64840  0.86210  0.67330  Biso   1.000  H 
  H10      1.0000 0.82230  0.92510  0.80090  Biso   1.000  H 
  C14      1.0000 0.88790  0.87740  0.64310  Biso   1.000  C 
  O9       1.0000 0.95560  0.94790  0.58770  Biso   1.000  O 
  O10      1.0000 0.93190  0.78310  0.65520  Biso   1.000  O 
  O11      1.0000 0.04440  0.05210  0.41230  Biso   1.000  O 
  C15      1.0000 0.11210  0.12260  0.35690  Biso   1.000  C 
  C16      1.0000 0.25400  0.08460  0.29830  Biso   1.000  C 
  H11      1.0000 0.35160  0.13790  0.32670  Biso   1.000  H 
  H12      1.0000 0.17770  0.07490  0.19910  Biso   1.000  H 
  O12      1.0000 0.06810  0.21690  0.34480  Biso   1.000  O 
