data_image0
_cell_length_a       9.263
_cell_length_b       18.543
_cell_length_c       30.16
_cell_angle_alpha    90
_cell_angle_beta     91.93
_cell_angle_gamma    90

_symmetry_space_group_name_H-M    "P 1"
_symmetry_int_tables_number       1

loop_
  _symmetry_equiv_pos_as_xyz
  'x, y, z'

loop_
  _atom_site_label
  _atom_site_occupancy
  _atom_site_fract_x
  _atom_site_fract_y
  _atom_site_fract_z
  _atom_site_thermal_displace_type
  _atom_site_B_iso_or_equiv
  _atom_site_type_symbol
  Ag1      1.0000 0.74647  0.24185  0.58564  Biso   1.000  Ag
  N1       1.0000 0.58970  0.23855  0.63667  Biso   1.000  N 
  C1       1.0000 0.54360  0.17610  0.65406  Biso   1.000  C 
  C2       1.0000 0.44270  0.17400  0.68727  Biso   1.000  C 
  H1       1.0000 0.41220  0.12900  0.69870  Biso   1.000  H 
  C3       1.0000 0.38710  0.23750  0.70359  Biso   1.000  C 
  C4       1.0000 0.43520  0.30200  0.68566  Biso   1.000  C 
  H2       1.0000 0.40030  0.34690  0.69610  Biso   1.000  H 
  C5       1.0000 0.53530  0.29970  0.65217  Biso   1.000  C 
  H3       1.0000 0.56630  0.34390  0.63980  Biso   1.000  H 
  C6       1.0000 0.28310  0.23830  0.73832  Biso   1.000  C 
  C7       1.0000 0.19960  0.23910  0.76731  Biso   1.000  C 
  C8       1.0000 0.09830  0.24110  0.80231  Biso   1.000  C 
  C9       1.0000 0.04870  0.17690  0.82033  Biso   1.000  C 
  H4       1.0000 0.08170  0.13200  0.80950  Biso   1.000  H 
  C10      1.0000 0.95060  0.17880  0.85435  Biso   1.000  C 
  H5       1.0000 0.91910  0.13490  0.86720  Biso   1.000  H 
  C11      1.0000 0.89790  0.24450  0.86983  Biso   1.000  C 
  C12      1.0000 0.79350  0.24610  0.90372  Biso   1.000  C 
  C13      1.0000 0.70310  0.24920  0.93184  Biso   1.000  C 
  C14      1.0000 0.59910  0.25290  0.96541  Biso   1.000  C 
  C15      1.0000 0.54920  0.19060  0.98540  Biso   1.000  C 
  H6       1.0000 0.58150  0.14460  0.97600  Biso   1.000  H 
  C16      1.0000 0.45140  0.19590  0.01935  Biso   1.000  C 
  H7       1.0000 0.42150  0.15290  0.03350  Biso   1.000  H 
  N2       1.0000 0.39740  0.25886  0.03307  Biso   1.000  N 
  C17      1.0000 0.44340  0.31920  0.01331  Biso   1.000  C 
  H8       1.0000 0.40620  0.36420  0.02270  Biso   1.000  H 
  C18      1.0000 0.54330  0.31880  0.97971  Biso   1.000  C 
  H9       1.0000 0.57310  0.36280  0.96670  Biso   1.000  H 
  Ag2      1.0000 0.24647  0.25815  0.08564  Biso   1.000  Ag
  N3       1.0000 0.08970  0.26145  0.13667  Biso   1.000  N 
  C19      1.0000 0.03530  0.20030  0.15217  Biso   1.000  C 
  H10      1.0000 0.06630  0.15610  0.13980  Biso   1.000  H 
  C20      1.0000 0.93520  0.19800  0.18566  Biso   1.000  C 
  H11      1.0000 0.90030  0.15310  0.19610  Biso   1.000  H 
  C21      1.0000 0.88710  0.26250  0.20359  Biso   1.000  C 
  C22      1.0000 0.94270  0.32600  0.18727  Biso   1.000  C 
  H12      1.0000 0.91220  0.37100  0.19870  Biso   1.000  H 
  C23      1.0000 0.04360  0.32390  0.15406  Biso   1.000  C 
  H13      1.0000 0.08110  0.36800  0.14330  Biso   1.000  H 
  C24      1.0000 0.78310  0.26170  0.23832  Biso   1.000  C 
  C25      1.0000 0.69960  0.26090  0.26731  Biso   1.000  C 
  C26      1.0000 0.59830  0.25890  0.30231  Biso   1.000  C 
  C27      1.0000 0.54770  0.19330  0.31842  Biso   1.000  C 
  C28      1.0000 0.44910  0.19110  0.35203  Biso   1.000  C 
  H14      1.0000 0.41650  0.14610  0.36290  Biso   1.000  H 
  C29      1.0000 0.39790  0.25550  0.36983  Biso   1.000  C 
  C30      1.0000 0.29350  0.25390  0.40372  Biso   1.000  C 
  C31      1.0000 0.20310  0.25080  0.43184  Biso   1.000  C 
  C32      1.0000 0.09910  0.24710  0.46541  Biso   1.000  C 
  C33      1.0000 0.04330  0.18120  0.47971  Biso   1.000  C 
  H15      1.0000 0.07310  0.13720  0.46670  Biso   1.000  H 
  C34      1.0000 0.94340  0.18080  0.51331  Biso   1.000  C 
  H16      1.0000 0.90620  0.13580  0.52270  Biso   1.000  H 
  N4       1.0000 0.89740  0.24114  0.53307  Biso   1.000  N 
  C35      1.0000 0.95140  0.30410  0.51935  Biso   1.000  C 
  H17      1.0000 0.92150  0.34710  0.53350  Biso   1.000  H 
  C36      1.0000 0.04920  0.30940  0.48540  Biso   1.000  C 
  H18      1.0000 0.08150  0.35540  0.47600  Biso   1.000  H 
  C37      1.0000 0.45060  0.32120  0.35435  Biso   1.000  C 
  H19      1.0000 0.41910  0.36510  0.36720  Biso   1.000  H 
  C38      1.0000 0.54870  0.32310  0.32033  Biso   1.000  C 
  H20      1.0000 0.58170  0.36800  0.30950  Biso   1.000  H 
  H21      1.0000 0.58120  0.14950  0.30620  Biso   1.000  H 
  C39      1.0000 0.94910  0.30890  0.85203  Biso   1.000  C 
  H22      1.0000 0.91650  0.35390  0.86290  Biso   1.000  H 
  C40      1.0000 0.04770  0.30670  0.81842  Biso   1.000  C 
  H23      1.0000 0.08120  0.35050  0.80620  Biso   1.000  H 
  H24      1.0000 0.58110  0.13200  0.64330  Biso   1.000  H 
