data_image0
_cell_length_a       31.272
_cell_length_b       31.272
_cell_length_c       19.711
_cell_angle_alpha    90
_cell_angle_beta     90
_cell_angle_gamma    120

_symmetry_space_group_name_H-M    "P 1"
_symmetry_int_tables_number       1

loop_
  _symmetry_equiv_pos_as_xyz
  'x, y, z'

loop_
  _atom_site_label
  _atom_site_occupancy
  _atom_site_fract_x
  _atom_site_fract_y
  _atom_site_fract_z
  _atom_site_thermal_displace_type
  _atom_site_B_iso_or_equiv
  _atom_site_type_symbol
  C1       1.0000 0.67870  0.42730  0.00210  Biso   1.000  C 
  C2       1.0000 0.69240  0.47410  0.02610  Biso   1.000  C 
  F1       1.0000 0.72250  0.49215  0.08120  Biso   1.000  F 
  C3       1.0000 0.67740  0.50490  0.99460  Biso   1.000  C 
  C4       1.0000 0.64220  0.48430  0.93290  Biso   1.000  C 
  O1       1.0000 0.62740  0.51250  0.90930  Biso   1.000  O 
  Zn1      1.0000 0.65832  0.58132  0.95694  Biso   1.000  Zn
  O2       1.0000 0.63640  0.61880  0.88930  Biso   1.000  O 
  C5       1.0000 0.66770  0.64160  0.84300  Biso   1.000  C 
  C6       1.0000 0.66240  0.66930  0.79300  Biso   1.000  C 
  C7       1.0000 0.69640  0.69190  0.74070  Biso   1.000  C 
  C8       1.0000 0.74200  0.68480  0.73830  Biso   1.000  C 
  O3       1.0000 0.77140  0.70480  0.68890  Biso   1.000  O 
  Zn2      1.0000 0.75201  0.74367  0.62361  Biso   1.000  Zn
  O4       1.0000 0.72213  0.77247  0.55607  Biso   1.000  O 
  C9       1.0000 0.69753  0.74447  0.50837  Biso   1.000  C 
  C10      1.0000 0.67493  0.75567  0.45767  Biso   1.000  C 
  F2       1.0000 0.68003  0.80162  0.45647  Biso   1.000  F 
  C11      1.0000 0.64853  0.72387  0.40497  Biso   1.000  C 
  O5       1.0000 0.62853  0.73327  0.35557  Biso   1.000  O 
  Zn3      1.0000 0.58967  0.67501  0.29027  Biso   1.000  Zn
  O6       1.0000 0.56087  0.61633  0.22273  Biso   1.000  O 
  C12      1.0000 0.58887  0.61973  0.17503  Biso   1.000  C 
  C13      1.0000 0.57767  0.58593  0.12433  Biso   1.000  C 
  F3       1.0000 0.53172  0.54508  0.12313  Biso   1.000  F 
  C14      1.0000 0.60947  0.59133  0.07163  Biso   1.000  C 
  O7       1.0000 0.60007  0.56193  0.02223  Biso   1.000  O 
  C15      1.0000 0.66217  0.63693  0.07403  Biso   1.000  C 
  O8       1.0000 0.69066  0.64113  0.02503  Biso   1.000  O 
  C16      1.0000 0.67357  0.67093  0.12633  Biso   1.000  C 
  F4       1.0000 0.72013  0.71188  0.12583  Biso   1.000  F 
  C17      1.0000 0.64057  0.66563  0.17633  Biso   1.000  C 
  O9       1.0000 0.64907  0.69693  0.22263  Biso   1.000  O 
  O10      1.0000 0.55177  0.70593  0.24263  Biso   1.000  O 
  C18      1.0000 0.50877  0.69113  0.26623  Biso   1.000  C 
  C19      1.0000 0.49417  0.65593  0.32793  Biso   1.000  C 
  O11      1.0000 0.52444  0.64363  0.34743  Biso   1.000  O 
  C20      1.0000 0.44837  0.64093  0.35943  Biso   1.000  C 
  F5       1.0000 0.43632  0.61083  0.41453  Biso   1.000  F 
  C21      1.0000 0.41527  0.65463  0.33543  Biso   1.000  C 
  C22      1.0000 0.42947  0.68673  0.27183  Biso   1.000  C 
  C23      1.0000 0.47517  0.70253  0.24113  Biso   1.000  C 
  F6       1.0000 0.48674  0.73133  0.18493  Biso   1.000  F 
  O12      1.0000 0.39727  0.69673  0.24883  Biso   1.000  O 
  Zn4      1.0000 0.33337  0.66663  0.30880  Biso   1.000  Zn
  O13      1.0000 0.30327  0.70053  0.24883  Biso   1.000  O 
  C24      1.0000 0.31327  0.74273  0.27183  Biso   1.000  C 
  C25      1.0000 0.29747  0.77263  0.24113  Biso   1.000  C 
  F7       1.0000 0.26867  0.75540  0.18493  Biso   1.000  F 
  C26      1.0000 0.30887  0.81763  0.26623  Biso   1.000  C 
  O14      1.0000 0.29407  0.84583  0.24263  Biso   1.000  O 
  Zn5      1.0000 0.32499  0.91465  0.29027  Biso   1.000  Zn
  O15      1.0000 0.30307  0.95213  0.22263  Biso   1.000  O 
  C27      1.0000 0.33437  0.97493  0.17633  Biso   1.000  C 
  C28      1.0000 0.38027  0.96913  0.17503  Biso   1.000  C 
  O16      1.0000 0.38367  0.94453  0.22273  Biso   1.000  O 
  C29      1.0000 0.41407  0.99173  0.12433  Biso   1.000  C 
  F8       1.0000 0.45492  0.98663  0.12313  Biso   1.000  F 
  C30      1.0000 0.40867  0.01813  0.07163  Biso   1.000  C 
  O17      1.0000 0.43807  0.03813  0.02223  Biso   1.000  O 
  Zn6      1.0000 0.41868  0.07700  0.95694  Biso   1.000  Zn
  O18      1.0000 0.38120  0.01760  0.88930  Biso   1.000  O 
  C31      1.0000 0.35840  0.02610  0.84300  Biso   1.000  C 
  C32      1.0000 0.33070  0.99310  0.79300  Biso   1.000  C 
  F9       1.0000 0.32509  0.94654  0.79250  Biso   1.000  F 
  C33      1.0000 0.30810  0.00450  0.74070  Biso   1.000  C 
  C34      1.0000 0.31520  0.05720  0.73830  Biso   1.000  C 
  O19      1.0000 0.29520  0.06660  0.68890  Biso   1.000  O 
  Zn7      1.0000 0.25633  0.00835  0.62361  Biso   1.000  Zn
  O20      1.0000 0.21843  0.03927  0.57597  Biso   1.000  O 
  C35      1.0000 0.17543  0.02447  0.59957  Biso   1.000  C 
  C36      1.0000 0.16083  0.98927  0.66127  Biso   1.000  C 
  C37      1.0000 0.11503  0.97427  0.69277  Biso   1.000  C 
  F10      1.0000 0.10298  0.94417  0.74787  Biso   1.000  F 
  C38      1.0000 0.08193  0.98797  0.66877  Biso   1.000  C 
  O21      1.0000 0.04113  0.97637  0.69617  Biso   1.000  O 
  Zn8      1.0000 0.00003  0.99997  0.64214  Biso   1.000  Zn
  O22      1.0000 0.96613  0.93607  0.58217  Biso   1.000  O 
  C39      1.0000 0.92393  0.90387  0.60517  Biso   1.000  C 
  C40      1.0000 0.89403  0.85817  0.57447  Biso   1.000  C 
  C41      1.0000 0.84903  0.82457  0.59957  Biso   1.000  C 
  C42      1.0000 0.82843  0.83917  0.66127  Biso   1.000  C 
  O23      1.0000 0.78586  0.80890  0.68077  Biso   1.000  O 
  C43      1.0000 0.85923  0.88497  0.69277  Biso   1.000  C 
  F11      1.0000 0.84118  0.89702  0.74787  Biso   1.000  F 
  C44      1.0000 0.90603  0.91807  0.66877  Biso   1.000  C 
  O24      1.0000 0.93523  0.95887  0.69617  Biso   1.000  O 
  O25      1.0000 0.82083  0.78157  0.57597  Biso   1.000  O 
  F12      1.0000 0.91126  0.84660  0.51827  Biso   1.000  F 
  O26      1.0000 0.02363  0.06477  0.69617  Biso   1.000  O 
  C45      1.0000 0.01203  0.09397  0.66877  Biso   1.000  C 
  C46      1.0000 0.02573  0.14077  0.69277  Biso   1.000  C 
  F13      1.0000 0.05583  0.15882  0.74787  Biso   1.000  F 
  C47      1.0000 0.01073  0.17157  0.66127  Biso   1.000  C 
  O27      1.0000 0.02303  0.21414  0.68077  Biso   1.000  O 
  Zn9      1.0000 0.99165  0.24799  0.62361  Biso   1.000  Zn
  O28      1.0000 0.96073  0.17917  0.57597  Biso   1.000  O 
  C48      1.0000 0.97553  0.15097  0.59957  Biso   1.000  C 
  C49      1.0000 0.96413  0.10597  0.57447  Biso   1.000  C 
  F14      1.0000 0.93533  0.08874  0.51827  Biso   1.000  F 
  C50      1.0000 0.97993  0.07607  0.60517  Biso   1.000  C 
  O29      1.0000 0.96993  0.03387  0.58217  Biso   1.000  O 
  O30      1.0000 0.96973  0.28547  0.55597  Biso   1.000  O 
  C51      1.0000 0.00103  0.30827  0.50967  Biso   1.000  C 
  C52      1.0000 0.99573  0.33597  0.45967  Biso   1.000  C 
  F15      1.0000 0.95478  0.34158  0.45917  Biso   1.000  F 
  C53      1.0000 0.02973  0.35857  0.40737  Biso   1.000  C 
  C54      1.0000 0.07533  0.35147  0.40497  Biso   1.000  C 
  C55      1.0000 0.08073  0.32507  0.45767  Biso   1.000  C 
  F16      1.0000 0.12158  0.31997  0.45647  Biso   1.000  F 
  C56      1.0000 0.04693  0.30247  0.50837  Biso   1.000  C 
  O31      1.0000 0.05033  0.27787  0.55607  Biso   1.000  O 
  O32      1.0000 0.10473  0.37147  0.35557  Biso   1.000  O 
  Zn10     1.0000 0.08535  0.41033  0.29027  Biso   1.000  Zn
  O33      1.0000 0.04787  0.35093  0.22263  Biso   1.000  O 
  C57      1.0000 0.02507  0.35943  0.17633  Biso   1.000  C 
  C58      1.0000 0.99737  0.32643  0.12633  Biso   1.000  C 
  F17      1.0000 0.99176  0.27987  0.12583  Biso   1.000  F 
  C59      1.0000 0.97477  0.33783  0.07403  Biso   1.000  C 
  O34      1.0000 0.95048  0.30934  0.02503  Biso   1.000  O 
  Zn11     1.0000 0.92300  0.34168  0.95694  Biso   1.000  Zn
  O35      1.0000 0.88510  0.37260  0.90930  Biso   1.000  O 
  C60      1.0000 0.84210  0.35780  0.93290  Biso   1.000  C 
  C61      1.0000 0.82750  0.32260  0.99460  Biso   1.000  C 
  C62      1.0000 0.78170  0.30760  0.02610  Biso   1.000  C 
  F18      1.0000 0.76965  0.27750  0.08120  Biso   1.000  F 
  C63      1.0000 0.74860  0.32130  0.00210  Biso   1.000  C 
  O36      1.0000 0.70780  0.30970  0.02950  Biso   1.000  O 
  Zn12     1.0000 0.66670  0.33330  0.97547  Biso   1.000  Zn
  O37      1.0000 0.63280  0.26940  0.91550  Biso   1.000  O 
  C64      1.0000 0.59060  0.23720  0.93850  Biso   1.000  C 
  C65      1.0000 0.56070  0.19150  0.90780  Biso   1.000  C 
  F19      1.0000 0.57793  0.17993  0.85160  Biso   1.000  F 
  C66      1.0000 0.51570  0.15790  0.93290  Biso   1.000  C 
  C67      1.0000 0.49510  0.17250  0.99460  Biso   1.000  C 
  C68      1.0000 0.52590  0.21830  0.02610  Biso   1.000  C 
  F20      1.0000 0.50785  0.23035  0.08120  Biso   1.000  F 
  C69      1.0000 0.57270  0.25140  0.00210  Biso   1.000  C 
  O38      1.0000 0.60190  0.29220  0.02950  Biso   1.000  O 
  O39      1.0000 0.45253  0.14223  0.01410  Biso   1.000  O 
  O40      1.0000 0.48750  0.11490  0.90930  Biso   1.000  O 
  O41      1.0000 0.73060  0.36340  0.91550  Biso   1.000  O 
  C70      1.0000 0.76280  0.35340  0.93850  Biso   1.000  C 
  C71      1.0000 0.80850  0.36920  0.90780  Biso   1.000  C 
  F21      1.0000 0.82007  0.39800  0.85160  Biso   1.000  F 
  O42      1.0000 0.63660  0.36720  0.91550  Biso   1.000  O 
  C72      1.0000 0.64660  0.40940  0.93850  Biso   1.000  C 
  C73      1.0000 0.63080  0.43930  0.90780  Biso   1.000  C 
  F22      1.0000 0.60200  0.42207  0.85160  Biso   1.000  F 
  O43      1.0000 0.69030  0.39810  0.02950  Biso   1.000  O 
  O44      1.0000 0.85777  0.31030  0.01410  Biso   1.000  O 
  O45      1.0000 0.98240  0.36360  0.88930  Biso   1.000  O 
  C74      1.0000 0.97390  0.33230  0.84300  Biso   1.000  C 
  C75      1.0000 0.92220  0.28640  0.84170  Biso   1.000  C 
  C76      1.0000 0.91100  0.25260  0.79100  Biso   1.000  C 
  F23      1.0000 0.86505  0.21175  0.78980  Biso   1.000  F 
  C77      1.0000 0.94280  0.25800  0.73830  Biso   1.000  C 
  O46      1.0000 0.93340  0.22860  0.68890  Biso   1.000  O 
  C78      1.0000 0.99550  0.30360  0.74070  Biso   1.000  C 
  C79      1.0000 0.00690  0.33760  0.79300  Biso   1.000  C 
  F24      1.0000 0.05346  0.37855  0.79250  Biso   1.000  F 
  O47      1.0000 0.02399  0.30780  0.69170  Biso   1.000  O 
  O48      1.0000 0.89420  0.28300  0.88940  Biso   1.000  O 
  O49      1.0000 0.96187  0.39993  0.02223  Biso   1.000  O 
  C80      1.0000 0.98187  0.39053  0.07163  Biso   1.000  C 
  C81      1.0000 0.00827  0.42233  0.12433  Biso   1.000  C 
  F25      1.0000 0.01337  0.46828  0.12313  Biso   1.000  F 
  C82      1.0000 0.03087  0.41113  0.17503  Biso   1.000  C 
  O50      1.0000 0.05547  0.43913  0.22273  Biso   1.000  O 
  O51      1.0000 0.11920  0.47556  0.34743  Biso   1.000  O 
  C83      1.0000 0.16177  0.50583  0.32793  Biso   1.000  C 
  C84      1.0000 0.19257  0.55163  0.35943  Biso   1.000  C 
  F26      1.0000 0.17452  0.56368  0.41453  Biso   1.000  F 
  C85      1.0000 0.23937  0.58473  0.33543  Biso   1.000  C 
  C86      1.0000 0.25727  0.57053  0.27183  Biso   1.000  C 
  C87      1.0000 0.22737  0.52483  0.24113  Biso   1.000  C 
  F27      1.0000 0.24460  0.51326  0.18493  Biso   1.000  F 
  C88      1.0000 0.18237  0.49123  0.26623  Biso   1.000  C 
  O52      1.0000 0.15417  0.44823  0.24263  Biso   1.000  O 
  O53      1.0000 0.29947  0.60273  0.24883  Biso   1.000  O 
  O54      1.0000 0.26857  0.62553  0.36283  Biso   1.000  O 
  O55      1.0000 0.02553  0.38286  0.35837  Biso   1.000  O 
  O56      1.0000 0.06393  0.03007  0.58217  Biso   1.000  O 
  C89      1.0000 0.09613  0.02007  0.60517  Biso   1.000  C 
  C90      1.0000 0.14183  0.03587  0.57447  Biso   1.000  C 
  F28      1.0000 0.15340  0.06467  0.51827  Biso   1.000  F 
  O57      1.0000 0.19110  0.97697  0.68077  Biso   1.000  O 
  O58      1.0000 0.31573  0.03027  0.55597  Biso   1.000  O 
  C91      1.0000 0.30723  0.99897  0.50967  Biso   1.000  C 
  C92      1.0000 0.25553  0.95307  0.50837  Biso   1.000  C 
  O59      1.0000 0.22753  0.94967  0.55607  Biso   1.000  O 
  C93      1.0000 0.24433  0.91927  0.45767  Biso   1.000  C 
  F29      1.0000 0.19838  0.87842  0.45647  Biso   1.000  F 
  C94      1.0000 0.27613  0.92467  0.40497  Biso   1.000  C 
  O60      1.0000 0.26673  0.89527  0.35557  Biso   1.000  O 
  C95      1.0000 0.32883  0.97027  0.40737  Biso   1.000  C 
  O61      1.0000 0.35732  0.97447  0.35837  Biso   1.000  O 
  C96      1.0000 0.34023  0.00427  0.45967  Biso   1.000  C 
  F30      1.0000 0.38679  0.04522  0.45917  Biso   1.000  F 
  O62      1.0000 0.28381  0.97601  0.69170  Biso   1.000  O 
  C97      1.0000 0.34160  0.08900  0.79100  Biso   1.000  C 
  F31      1.0000 0.34670  0.13495  0.78980  Biso   1.000  F 
  C98      1.0000 0.36420  0.07780  0.84170  Biso   1.000  C 
  O63      1.0000 0.38880  0.10580  0.88940  Biso   1.000  O 
  O64      1.0000 0.35887  0.04952  0.02503  Biso   1.000  O 
  C99      1.0000 0.36307  0.02523  0.07403  Biso   1.000  C 
  C100     1.0000 0.32907  0.00263  0.12633  Biso   1.000  C 
  F32      1.0000 0.28812  0.00824  0.12583  Biso   1.000  F 
  O65      1.0000 0.35637  0.88080  0.34743  Biso   1.000  O 
  C101     1.0000 0.34407  0.83823  0.32793  Biso   1.000  C 
  C102     1.0000 0.35907  0.80743  0.35943  Biso   1.000  C 
  F33      1.0000 0.38917  0.82548  0.41453  Biso   1.000  F 
  C103     1.0000 0.34537  0.76063  0.33543  Biso   1.000  C 
  O66      1.0000 0.35697  0.73143  0.36283  Biso   1.000  O 
  O67      1.0000 0.37447  0.64303  0.36283  Biso   1.000  O 
  O68      1.0000 0.61714  0.64268  0.35837  Biso   1.000  O 
  C104     1.0000 0.64143  0.67117  0.40737  Biso   1.000  C 
  C105     1.0000 0.66403  0.65977  0.45967  Biso   1.000  C 
  F34      1.0000 0.65842  0.61321  0.45917  Biso   1.000  F 
  C106     1.0000 0.69173  0.69277  0.50967  Biso   1.000  C 
  O69      1.0000 0.71453  0.68427  0.55597  Biso   1.000  O 
  O70      1.0000 0.69220  0.71619  0.69170  Biso   1.000  O 
  C107     1.0000 0.74740  0.65840  0.79100  Biso   1.000  C 
  F35      1.0000 0.78825  0.65330  0.78980  Biso   1.000  F 
  C108     1.0000 0.71360  0.63580  0.84170  Biso   1.000  C 
  O71      1.0000 0.71700  0.61120  0.88940  Biso   1.000  O 
  F36      1.0000 0.62145  0.67491  0.79250  Biso   1.000  F 
  O72      1.0000 0.68970  0.54747  0.01410  Biso   1.000  O 
