data_image0
_cell_length_a       15.84
_cell_length_b       17.273
_cell_length_c       17.369
_cell_angle_alpha    78.151
_cell_angle_beta     82.772
_cell_angle_gamma    74.275

_symmetry_space_group_name_H-M    "P 1"
_symmetry_int_tables_number       1

loop_
  _symmetry_equiv_pos_as_xyz
  'x, y, z'

loop_
  _atom_site_label
  _atom_site_occupancy
  _atom_site_fract_x
  _atom_site_fract_y
  _atom_site_fract_z
  _atom_site_thermal_displace_type
  _atom_site_B_iso_or_equiv
  _atom_site_type_symbol
  C1       1.0000 0.79900  0.11230  0.01780  Biso   1.000  C 
  C2       1.0000 0.79450  0.11210  0.10480  Biso   1.000  C 
  C3       1.0000 0.86710  0.09450  0.14380  Biso   1.000  C 
  H1       1.0000 0.92331  0.08036  0.11638  Biso   1.000  H 
  C4       1.0000 0.86110  0.09690  0.22410  Biso   1.000  C 
  C5       1.0000 0.77920  0.12010  0.26490  Biso   1.000  C 
  C6       1.0000 0.70290  0.14130  0.22350  Biso   1.000  C 
  C7       1.0000 0.71130  0.13530  0.14410  Biso   1.000  C 
  H2       1.0000 0.66014  0.14703  0.11621  Biso   1.000  H 
  H3       1.0000 0.64657  0.15957  0.24932  Biso   1.000  H 
  C8       1.0000 0.77070  0.12560  0.34990  Biso   1.000  C 
  H4       1.0000 0.71466  0.14458  0.37594  Biso   1.000  H 
  C9       1.0000 0.84080  0.10430  0.38770  Biso   1.000  C 
  C10      1.0000 0.83520  0.11260  0.47370  Biso   1.000  C 
  C11      1.0000 0.90630  0.11080  0.50960  Biso   1.000  C 
  H5       1.0000 0.96183  0.10609  0.48039  Biso   1.000  H 
  C12      1.0000 0.89910  0.11560  0.58800  Biso   1.000  C 
  H6       1.0000 0.95063  0.11203  0.61267  Biso   1.000  H 
  C13      1.0000 0.81840  0.12570  0.63290  Biso   1.000  C 
  C14      1.0000 0.74500  0.13260  0.59680  Biso   1.000  C 
  C15      1.0000 0.75530  0.12320  0.51500  Biso   1.000  C 
  H7       1.0000 0.70508  0.12440  0.48963  Biso   1.000  H 
  H8       1.0000 0.68855  0.14339  0.62432  Biso   1.000  H 
  C16      1.0000 0.81260  0.12970  0.71880  Biso   1.000  C 
  O1       1.0000 0.88320  0.11690  0.74865  Biso   1.000  O 
  Zn1      1.0000 0.90165  0.10542  0.86421  Biso   1.000  Zn
  N1       1.0000 0.03050  0.10590  0.85640  Biso   1.000  N 
  C17      1.0000 0.07350  0.09310  0.92120  Biso   1.000  C 
  H9       1.0000 0.04267  0.08242  0.97121  Biso   1.000  H 
  C18      1.0000 0.15950  0.09460  0.91900  Biso   1.000  C 
  H10      1.0000 0.18859  0.08270  0.96621  Biso   1.000  H 
  C19      1.0000 0.20280  0.11360  0.84750  Biso   1.000  C 
  C20      1.0000 0.16070  0.12390  0.77940  Biso   1.000  C 
  H11      1.0000 0.19060  0.13303  0.72869  Biso   1.000  H 
  C21      1.0000 0.07440  0.12040  0.78770  Biso   1.000  C 
  H12      1.0000 0.04460  0.12905  0.74132  Biso   1.000  H 
  N2       1.0000 0.29180  0.11900  0.83540  Biso   1.000  N 
  N3       1.0000 0.32160  0.12060  0.89770  Biso   1.000  N 
  C22      1.0000 0.41070  0.12790  0.88750  Biso   1.000  C 
  C23      1.0000 0.45490  0.10810  0.95500  Biso   1.000  C 
  H13      1.0000 0.42679  0.09111  0.00481  Biso   1.000  H 
  C24      1.0000 0.54140  0.11330  0.94880  Biso   1.000  C 
  N4       1.0000 0.58070  0.13950  0.88000  Biso   1.000  N 
  Zn2      1.0000 0.71011  0.13819  0.87209  Biso   1.000  Zn
  O2       1.0000 0.73930  0.14320  0.75511  Biso   1.000  O 
  O3       1.0000 0.75810  0.01495  0.88230  Biso   1.000  O 
  C25      1.0000 0.83220  0.96690  0.87610  Biso   1.000  C 
  C26      1.0000 0.83360  0.88110  0.87230  Biso   1.000  C 
  C27      1.0000 0.91230  0.82270  0.86370  Biso   1.000  C 
  C28      1.0000 0.91410  0.74470  0.85790  Biso   1.000  C 
  H14      1.0000 0.96948  0.70700  0.85120  Biso   1.000  H 
  C29      1.0000 0.83880  0.71870  0.86120  Biso   1.000  C 
  C30      1.0000 0.83830  0.63950  0.85190  Biso   1.000  C 
  H15      1.0000 0.89268  0.60410  0.83754  Biso   1.000  H 
  C31      1.0000 0.76620  0.61090  0.86190  Biso   1.000  C 
  C32      1.0000 0.76830  0.52810  0.85700  Biso   1.000  C 
  C33      1.0000 0.84530  0.47320  0.84370  Biso   1.000  C 
  C34      1.0000 0.84780  0.39310  0.84180  Biso   1.000  C 
  H16      1.0000 0.90317  0.35668  0.83182  Biso   1.000  H 
  C35      1.0000 0.77660  0.36460  0.85330  Biso   1.000  C 
  C36      1.0000 0.69780  0.42160  0.86240  Biso   1.000  C 
  C37      1.0000 0.69350  0.50240  0.86530  Biso   1.000  C 
  H17      1.0000 0.63809  0.53963  0.87298  Biso   1.000  H 
  H18      1.0000 0.64460  0.40509  0.86686  Biso   1.000  H 
  C38      1.0000 0.78010  0.27740  0.85520  Biso   1.000  C 
  O4       1.0000 0.85320  0.22996  0.85230  Biso   1.000  O 
  O5       1.0000 0.70850  0.25760  0.85950  Biso   1.000  O 
  H19      1.0000 0.89856  0.49011  0.83558  Biso   1.000  H 
  C39      1.0000 0.68930  0.66970  0.87280  Biso   1.000  C 
  H20      1.0000 0.63494  0.65566  0.87490  Biso   1.000  H 
  C40      1.0000 0.68780  0.74970  0.88080  Biso   1.000  C 
  H21      1.0000 0.63258  0.78695  0.88919  Biso   1.000  H 
  C41      1.0000 0.76100  0.77510  0.87720  Biso   1.000  C 
  C42      1.0000 0.76020  0.85480  0.88310  Biso   1.000  C 
  H22      1.0000 0.70571  0.89157  0.89504  Biso   1.000  H 
  H23      1.0000 0.96617  0.83743  0.86183  Biso   1.000  H 
  O6       1.0000 0.90310  0.98532  0.87526  Biso   1.000  O 
  O7       1.0000 0.72799  0.12560  0.98812  Biso   1.000  O 
  C43      1.0000 0.53720  0.16040  0.81500  Biso   1.000  C 
  C44      1.0000 0.45070  0.15610  0.81690  Biso   1.000  C 
  H24      1.0000 0.42000  0.17236  0.77027  Biso   1.000  H 
  H25      1.0000 0.56607  0.17864  0.76602  Biso   1.000  H 
  H26      1.0000 0.57318  0.09789  0.99475  Biso   1.000  H 
  O8       1.0000 0.87229  0.09928  0.98227  Biso   1.000  O 
  C45      1.0000 0.92040  0.07280  0.35310  Biso   1.000  C 
  H27      1.0000 0.97025  0.05238  0.38350  Biso   1.000  H 
  C46      1.0000 0.93000  0.07000  0.26930  Biso   1.000  C 
  H28      1.0000 0.98672  0.04854  0.24562  Biso   1.000  H 
