data_image0
_cell_length_a       34.4155
_cell_length_b       14.8927
_cell_length_c       30.6402
_cell_angle_alpha    90
_cell_angle_beta     100.849
_cell_angle_gamma    90

_symmetry_space_group_name_H-M    "P 1"
_symmetry_int_tables_number       1

loop_
  _symmetry_equiv_pos_as_xyz
  'x, y, z'

loop_
  _atom_site_label
  _atom_site_occupancy
  _atom_site_fract_x
  _atom_site_fract_y
  _atom_site_fract_z
  _atom_site_thermal_displace_type
  _atom_site_B_iso_or_equiv
  _atom_site_type_symbol
  Zn1      1.0000 0.07958  0.63000  0.09455  Biso   1.000  Zn
  I1       1.0000 0.02328  0.66110  0.13090  Biso   1.000  I 
  N1       1.0000 0.06420  0.52160  0.04990  Biso   1.000  N 
  C1       1.0000 0.03360  0.46730  0.05090  Biso   1.000  C 
  H1       1.0000 0.01530  0.48240  0.06940  Biso   1.000  H 
  C2       1.0000 0.02760  0.38960  0.02560  Biso   1.000  C 
  H2       1.0000 0.00590  0.35120  0.02720  Biso   1.000  H 
  C3       1.0000 0.05380  0.36930  0.99810  Biso   1.000  C 
  C4       1.0000 0.04960  0.28560  0.97070  Biso   1.000  C 
  N2       1.0000 0.07364  0.27620  0.94230  Biso   1.000  N 
  C5       1.0000 0.06710  0.20260  0.91640  Biso   1.000  C 
  N3       1.0000 0.03886  0.14280  0.91730  Biso   1.000  N 
  C6       1.0000 0.01630  0.15930  0.94740  Biso   1.000  C 
  N4       1.0000 0.02064  0.22820  0.97579  Biso   1.000  N 
  C7       1.0000 0.98290  0.09750  0.94840  Biso   1.000  C 
  C8       1.0000 0.96740  0.05000  0.91070  Biso   1.000  C 
  H3       1.0000 0.97810  0.05620  0.88440  Biso   1.000  H 
  C9       1.0000 0.93640  0.99370  0.91180  Biso   1.000  C 
  H4       1.0000 0.92660  0.95870  0.88610  Biso   1.000  H 
  N5       1.0000 0.91920  0.98530  0.94640  Biso   1.000  N 
  C10      1.0000 0.93320  0.03360  0.98210  Biso   1.000  C 
  C11      1.0000 0.96470  0.09110  0.98380  Biso   1.000  C 
  H5       1.0000 0.97370  0.12610  0.00960  Biso   1.000  H 
  H6       1.0000 0.92110  0.02840  0.00750  Biso   1.000  H 
  Zn2      1.0000 0.87047  0.90320  0.94280  Biso   1.000  Zn
  I2       1.0000 0.89130  0.75590  0.90021  Biso   1.000  I 
  N6       1.0000 0.83010  0.96680  0.89440  Biso   1.000  N 
  C12      1.0000 0.80870  0.92470  0.86000  Biso   1.000  C 
  C13      1.0000 0.77900  0.96610  0.83090  Biso   1.000  C 
  H7       1.0000 0.76420  0.93380  0.80660  Biso   1.000  H 
  C14      1.0000 0.77080  0.05530  0.83720  Biso   1.000  C 
  C15      1.0000 0.73860  0.10070  0.80590  Biso   1.000  C 
  N7       1.0000 0.71846  0.05000  0.77360  Biso   1.000  N 
  C16      1.0000 0.68750  0.09140  0.74810  Biso   1.000  C 
  N8       1.0000 0.67829  0.17780  0.75170  Biso   1.000  N 
  C17      1.0000 0.70220  0.22320  0.78320  Biso   1.000  C 
  N9       1.0000 0.73230  0.18880  0.81170  Biso   1.000  N 
  C18      1.0000 0.69550  0.32240  0.78310  Biso   1.000  C 
  C19      1.0000 0.66420  0.35830  0.75470  Biso   1.000  C 
  C20      1.0000 0.65890  0.45020  0.75280  Biso   1.000  C 
  H8       1.0000 0.63660  0.47410  0.73330  Biso   1.000  H 
  N10      1.0000 0.68420  0.50660  0.77750  Biso   1.000  N 
  C21      1.0000 0.71390  0.47140  0.80470  Biso   1.000  C 
  C22      1.0000 0.72120  0.37950  0.80930  Biso   1.000  C 
  H9       1.0000 0.74320  0.35720  0.82980  Biso   1.000  H 
  H10      1.0000 0.73180  0.51100  0.82270  Biso   1.000  H 
  Zn3      1.0000 0.67299  0.64343  0.77191  Biso   1.000  Zn
  I3       1.0000 0.62335  0.66320  0.69439  Biso   1.000  I 
  N11      1.0000 0.63930  0.66120  0.82130  Biso   1.000  N 
  C23      1.0000 0.60550  0.62090  0.81790  Biso   1.000  C 
  C24      1.0000 0.58030  0.63250  0.84830  Biso   1.000  C 
  H11      1.0000 0.55550  0.60260  0.84460  Biso   1.000  H 
  C25      1.0000 0.59250  0.68830  0.88360  Biso   1.000  C 
  C26      1.0000 0.56710  0.70260  0.91640  Biso   1.000  C 
  N12      1.0000 0.53886  0.64280  0.91730  Biso   1.000  N 
  C27      1.0000 0.51630  0.65930  0.94740  Biso   1.000  C 
  N13      1.0000 0.52064  0.72820  0.97579  Biso   1.000  N 
  C28      1.0000 0.54960  0.78560  0.97070  Biso   1.000  C 
  N14      1.0000 0.57364  0.77620  0.94230  Biso   1.000  N 
  C29      1.0000 0.55380  0.86930  0.99810  Biso   1.000  C 
  C30      1.0000 0.52760  0.88960  0.02560  Biso   1.000  C 
  H12      1.0000 0.50590  0.85120  0.02720  Biso   1.000  H 
  C31      1.0000 0.53360  0.96730  0.05090  Biso   1.000  C 
  H13      1.0000 0.51530  0.98240  0.06940  Biso   1.000  H 
  N15      1.0000 0.56420  0.02160  0.04990  Biso   1.000  N 
  C32      1.0000 0.58850  0.00200  0.02340  Biso   1.000  C 
  H14      1.0000 0.61000  0.04140  0.02230  Biso   1.000  H 
  C33      1.0000 0.58420  0.92650  0.99680  Biso   1.000  C 
  H15      1.0000 0.60240  0.91470  0.97770  Biso   1.000  H 
  Zn4      1.0000 0.57958  0.13000  0.09455  Biso   1.000  Zn
  I4       1.0000 0.52328  0.16110  0.13090  Biso   1.000  I 
  N16      1.0000 0.61790  0.05600  0.14250  Biso   1.000  N 
  C34      1.0000 0.65040  0.09260  0.16650  Biso   1.000  C 
  H16      1.0000 0.65780  0.15160  0.15950  Biso   1.000  H 
  C35      1.0000 0.67340  0.04740  0.20110  Biso   1.000  C 
  H17      1.0000 0.69610  0.07580  0.21790  Biso   1.000  H 
  C36      1.0000 0.66380  0.96090  0.21170  Biso   1.000  C 
  C37      1.0000 0.68750  0.90860  0.24810  Biso   1.000  C 
  N17      1.0000 0.67829  0.82220  0.25170  Biso   1.000  N 
  C38      1.0000 0.70220  0.77680  0.28320  Biso   1.000  C 
  N18      1.0000 0.73230  0.81120  0.31170  Biso   1.000  N 
  C39      1.0000 0.73860  0.89930  0.30590  Biso   1.000  C 
  N19      1.0000 0.71846  0.95000  0.27360  Biso   1.000  N 
  C40      1.0000 0.77080  0.94470  0.33720  Biso   1.000  C 
  C41      1.0000 0.79320  0.90020  0.37200  Biso   1.000  C 
  H18      1.0000 0.78890  0.83830  0.37690  Biso   1.000  H 
  C42      1.0000 0.82260  0.94800  0.40020  Biso   1.000  C 
  H19      1.0000 0.83800  0.91750  0.42470  Biso   1.000  H 
  N20      1.0000 0.83010  0.03320  0.39440  Biso   1.000  N 
  C43      1.0000 0.80870  0.07530  0.36000  Biso   1.000  C 
  C44      1.0000 0.77900  0.03390  0.33090  Biso   1.000  C 
  H20      1.0000 0.76420  0.06620  0.30660  Biso   1.000  H 
  H21      1.0000 0.81410  0.13680  0.35540  Biso   1.000  H 
  Zn5      1.0000 0.87047  0.09680  0.44280  Biso   1.000  Zn
  N21      1.0000 0.91920  0.01470  0.44640  Biso   1.000  N 
  C45      1.0000 0.93640  0.00630  0.41180  Biso   1.000  C 
  H22      1.0000 0.92660  0.04130  0.38610  Biso   1.000  H 
  C46      1.0000 0.96740  0.95000  0.41070  Biso   1.000  C 
  H23      1.0000 0.97810  0.94380  0.38440  Biso   1.000  H 
  C47      1.0000 0.98290  0.90250  0.44840  Biso   1.000  C 
  C48      1.0000 0.01630  0.84070  0.44740  Biso   1.000  C 
  N22      1.0000 0.03886  0.85720  0.41730  Biso   1.000  N 
  C49      1.0000 0.06710  0.79740  0.41640  Biso   1.000  C 
  C50      1.0000 0.09250  0.81170  0.38360  Biso   1.000  C 
  C51      1.0000 0.12820  0.76810  0.38710  Biso   1.000  C 
  H24      1.0000 0.13680  0.72750  0.41090  Biso   1.000  H 
  C52      1.0000 0.15110  0.78410  0.35580  Biso   1.000  C 
  H25      1.0000 0.17610  0.75540  0.35870  Biso   1.000  H 
  N23      1.0000 0.13930  0.83880  0.32130  Biso   1.000  N 
  C53      1.0000 0.10550  0.87910  0.31790  Biso   1.000  C 
  H26      1.0000 0.09740  0.91860  0.29360  Biso   1.000  H 
  C54      1.0000 0.08030  0.86750  0.34830  Biso   1.000  C 
  H27      1.0000 0.05550  0.89740  0.34460  Biso   1.000  H 
  Zn6      1.0000 0.17299  0.85657  0.27191  Biso   1.000  Zn
  I5       1.0000 0.12335  0.83680  0.19439  Biso   1.000  I 
  N24      1.0000 0.18420  0.99340  0.27750  Biso   1.000  N 
  C55      1.0000 0.15890  0.04980  0.25280  Biso   1.000  C 
  H28      1.0000 0.13660  0.02590  0.23330  Biso   1.000  H 
  C56      1.0000 0.16420  0.14170  0.25470  Biso   1.000  C 
  H29      1.0000 0.14600  0.17980  0.23620  Biso   1.000  H 
  C57      1.0000 0.19550  0.17760  0.28310  Biso   1.000  C 
  C58      1.0000 0.20220  0.27680  0.28320  Biso   1.000  C 
  N25      1.0000 0.23230  0.31120  0.31170  Biso   1.000  N 
  C59      1.0000 0.23860  0.39930  0.30590  Biso   1.000  C 
  N26      1.0000 0.21846  0.45000  0.27360  Biso   1.000  N 
  C60      1.0000 0.18750  0.40860  0.24810  Biso   1.000  C 
  N27      1.0000 0.17829  0.32220  0.25170  Biso   1.000  N 
  C61      1.0000 0.16380  0.46090  0.21170  Biso   1.000  C 
  C62      1.0000 0.17340  0.54740  0.20110  Biso   1.000  C 
  H30      1.0000 0.19610  0.57580  0.21790  Biso   1.000  H 
  C63      1.0000 0.15040  0.59260  0.16650  Biso   1.000  C 
  H31      1.0000 0.15780  0.65160  0.15950  Biso   1.000  H 
  N28      1.0000 0.11790  0.55600  0.14250  Biso   1.000  N 
  C64      1.0000 0.10820  0.47310  0.15310  Biso   1.000  C 
  C65      1.0000 0.13030  0.42390  0.18660  Biso   1.000  C 
  H32      1.0000 0.12250  0.36460  0.19240  Biso   1.000  H 
  H33      1.0000 0.08490  0.44690  0.13660  Biso   1.000  H 
  C66      1.0000 0.27080  0.44470  0.33720  Biso   1.000  C 
  C67      1.0000 0.29320  0.40020  0.37200  Biso   1.000  C 
  H34      1.0000 0.28890  0.33830  0.37690  Biso   1.000  H 
  C68      1.0000 0.32260  0.44800  0.40020  Biso   1.000  C 
  H35      1.0000 0.33800  0.41750  0.42470  Biso   1.000  H 
  N29      1.0000 0.33010  0.53320  0.39440  Biso   1.000  N 
  C69      1.0000 0.30870  0.57530  0.36000  Biso   1.000  C 
  C70      1.0000 0.27900  0.53390  0.33090  Biso   1.000  C 
  H36      1.0000 0.26420  0.56620  0.30660  Biso   1.000  H 
  H37      1.0000 0.31410  0.63680  0.35540  Biso   1.000  H 
  Zn7      1.0000 0.37047  0.59680  0.44280  Biso   1.000  Zn
  N30      1.0000 0.41920  0.51470  0.44640  Biso   1.000  N 
  C71      1.0000 0.43320  0.46640  0.48210  Biso   1.000  C 
  H38      1.0000 0.42110  0.47160  0.50750  Biso   1.000  H 
  C72      1.0000 0.46470  0.40890  0.48380  Biso   1.000  C 
  H39      1.0000 0.47370  0.37390  0.50960  Biso   1.000  H 
  C73      1.0000 0.48290  0.40250  0.44840  Biso   1.000  C 
  C74      1.0000 0.46740  0.45000  0.41070  Biso   1.000  C 
  C75      1.0000 0.43640  0.50630  0.41180  Biso   1.000  C 
  H40      1.0000 0.42660  0.54130  0.38610  Biso   1.000  H 
  H41      1.0000 0.47810  0.44380  0.38440  Biso   1.000  H 
  C76      1.0000 0.51630  0.34070  0.44740  Biso   1.000  C 
  N31      1.0000 0.53886  0.35720  0.41730  Biso   1.000  N 
  C77      1.0000 0.56710  0.29740  0.41640  Biso   1.000  C 
  C78      1.0000 0.59250  0.31170  0.38360  Biso   1.000  C 
  C79      1.0000 0.62820  0.26810  0.38710  Biso   1.000  C 
  H42      1.0000 0.63680  0.22750  0.41090  Biso   1.000  H 
  C80      1.0000 0.65110  0.28410  0.35580  Biso   1.000  C 
  H43      1.0000 0.67610  0.25540  0.35870  Biso   1.000  H 
  N32      1.0000 0.63930  0.33880  0.32130  Biso   1.000  N 
  C81      1.0000 0.60550  0.37910  0.31790  Biso   1.000  C 
  C82      1.0000 0.58030  0.36750  0.34830  Biso   1.000  C 
  H44      1.0000 0.55550  0.39740  0.34460  Biso   1.000  H 
  H45      1.0000 0.59740  0.41860  0.29360  Biso   1.000  H 
  Zn8      1.0000 0.67299  0.35657  0.27191  Biso   1.000  Zn
  I6       1.0000 0.62335  0.33680  0.19439  Biso   1.000  I 
  I7       1.0000 0.73214  0.26530  0.29047  Biso   1.000  I 
  N33      1.0000 0.68420  0.49340  0.27750  Biso   1.000  N 
  C83      1.0000 0.71390  0.52860  0.30470  Biso   1.000  C 
  H46      1.0000 0.73180  0.48900  0.32270  Biso   1.000  H 
  C84      1.0000 0.72120  0.62050  0.30930  Biso   1.000  C 
  C85      1.0000 0.69550  0.67760  0.28310  Biso   1.000  C 
  C86      1.0000 0.66420  0.64170  0.25470  Biso   1.000  C 
  H47      1.0000 0.64600  0.67980  0.23620  Biso   1.000  H 
  C87      1.0000 0.65890  0.54980  0.25280  Biso   1.000  C 
  H48      1.0000 0.63660  0.52590  0.23330  Biso   1.000  H 
  H49      1.0000 0.74320  0.64280  0.32980  Biso   1.000  H 
  N34      1.0000 0.57364  0.22380  0.44230  Biso   1.000  N 
  C88      1.0000 0.54960  0.21440  0.47070  Biso   1.000  C 
  C89      1.0000 0.55380  0.13070  0.49810  Biso   1.000  C 
  C90      1.0000 0.52760  0.11040  0.52560  Biso   1.000  C 
  H50      1.0000 0.50590  0.14880  0.52720  Biso   1.000  H 
  C91      1.0000 0.53360  0.03270  0.55090  Biso   1.000  C 
  H51      1.0000 0.51530  0.01760  0.56940  Biso   1.000  H 
  N35      1.0000 0.56420  0.97840  0.54990  Biso   1.000  N 
  C92      1.0000 0.58850  0.99800  0.52340  Biso   1.000  C 
  H52      1.0000 0.61000  0.95860  0.52230  Biso   1.000  H 
  C93      1.0000 0.58420  0.07350  0.49680  Biso   1.000  C 
  H53      1.0000 0.60240  0.08530  0.47770  Biso   1.000  H 
  Zn9      1.0000 0.57958  0.87000  0.59455  Biso   1.000  Zn
  I8       1.0000 0.52328  0.83890  0.63090  Biso   1.000  I 
  N36      1.0000 0.61790  0.94400  0.64250  Biso   1.000  N 
  C94      1.0000 0.65040  0.90740  0.66650  Biso   1.000  C 
  H54      1.0000 0.65780  0.84840  0.65950  Biso   1.000  H 
  C95      1.0000 0.67340  0.95260  0.70110  Biso   1.000  C 
  H55      1.0000 0.69610  0.92420  0.71790  Biso   1.000  H 
  C96      1.0000 0.66380  0.03910  0.71170  Biso   1.000  C 
  C97      1.0000 0.63030  0.07610  0.68660  Biso   1.000  C 
  H56      1.0000 0.62250  0.13540  0.69240  Biso   1.000  H 
  C98      1.0000 0.60820  0.02690  0.65310  Biso   1.000  C 
  H57      1.0000 0.58490  0.05310  0.63660  Biso   1.000  H 
  I9       1.0000 0.61990  0.76270  0.55663  Biso   1.000  I 
  N37      1.0000 0.52064  0.27180  0.47579  Biso   1.000  N 
  I10      1.0000 0.34860  0.59530  0.51160  Biso   1.000  I 
  I11      1.0000 0.39130  0.74410  0.40021  Biso   1.000  I 
  C99      1.0000 0.22120  0.12050  0.30930  Biso   1.000  C 
  H58      1.0000 0.24320  0.14280  0.32980  Biso   1.000  H 
  C100     1.0000 0.21390  0.02860  0.30470  Biso   1.000  C 
  H59      1.0000 0.23180  0.98900  0.32270  Biso   1.000  H 
  I12      1.0000 0.23214  0.76530  0.29047  Biso   1.000  I 
  N38      1.0000 0.07364  0.72380  0.44230  Biso   1.000  N 
  C101     1.0000 0.04960  0.71440  0.47070  Biso   1.000  C 
  C102     1.0000 0.05380  0.63070  0.49810  Biso   1.000  C 
  C103     1.0000 0.02760  0.61040  0.52560  Biso   1.000  C 
  H60      1.0000 0.00590  0.64880  0.52720  Biso   1.000  H 
  C104     1.0000 0.03360  0.53270  0.55090  Biso   1.000  C 
  H61      1.0000 0.01530  0.51760  0.56940  Biso   1.000  H 
  N39      1.0000 0.06420  0.47840  0.54990  Biso   1.000  N 
  C105     1.0000 0.08850  0.49800  0.52340  Biso   1.000  C 
  H62      1.0000 0.11000  0.45860  0.52230  Biso   1.000  H 
  C106     1.0000 0.08420  0.57350  0.49680  Biso   1.000  C 
  H63      1.0000 0.10240  0.58530  0.47770  Biso   1.000  H 
  Zn10     1.0000 0.07958  0.37000  0.59455  Biso   1.000  Zn
  I13      1.0000 0.02328  0.33890  0.63090  Biso   1.000  I 
  N40      1.0000 0.11790  0.44400  0.64250  Biso   1.000  N 
  C107     1.0000 0.10820  0.52690  0.65310  Biso   1.000  C 
  H64      1.0000 0.08490  0.55310  0.63660  Biso   1.000  H 
  C108     1.0000 0.13030  0.57610  0.68660  Biso   1.000  C 
  C109     1.0000 0.16380  0.53910  0.71170  Biso   1.000  C 
  C110     1.0000 0.17340  0.45260  0.70110  Biso   1.000  C 
  C111     1.0000 0.15040  0.40740  0.66650  Biso   1.000  C 
  H65      1.0000 0.15780  0.34840  0.65950  Biso   1.000  H 
  H66      1.0000 0.19610  0.42420  0.71790  Biso   1.000  H 
  C112     1.0000 0.18750  0.59140  0.74810  Biso   1.000  C 
  N41      1.0000 0.17829  0.67780  0.75170  Biso   1.000  N 
  C113     1.0000 0.20220  0.72320  0.78320  Biso   1.000  C 
  N42      1.0000 0.23230  0.68880  0.81170  Biso   1.000  N 
  C114     1.0000 0.23860  0.60070  0.80590  Biso   1.000  C 
  N43      1.0000 0.21846  0.55000  0.77360  Biso   1.000  N 
  C115     1.0000 0.27080  0.55530  0.83720  Biso   1.000  C 
  C116     1.0000 0.29320  0.59980  0.87200  Biso   1.000  C 
  H67      1.0000 0.28890  0.66170  0.87690  Biso   1.000  H 
  C117     1.0000 0.32260  0.55200  0.90020  Biso   1.000  C 
  H68      1.0000 0.33800  0.58250  0.92470  Biso   1.000  H 
  N44      1.0000 0.33010  0.46680  0.89440  Biso   1.000  N 
  C118     1.0000 0.30870  0.42470  0.86000  Biso   1.000  C 
  C119     1.0000 0.27900  0.46610  0.83090  Biso   1.000  C 
  H69      1.0000 0.26420  0.43380  0.80660  Biso   1.000  H 
  H70      1.0000 0.31410  0.36320  0.85540  Biso   1.000  H 
  Zn11     1.0000 0.37047  0.40320  0.94280  Biso   1.000  Zn
  I14      1.0000 0.39130  0.25590  0.90021  Biso   1.000  I 
  N45      1.0000 0.41920  0.48530  0.94640  Biso   1.000  N 
  C120     1.0000 0.43320  0.53360  0.98210  Biso   1.000  C 
  C121     1.0000 0.46470  0.59110  0.98380  Biso   1.000  C 
  C122     1.0000 0.48290  0.59750  0.94840  Biso   1.000  C 
  C123     1.0000 0.46740  0.55000  0.91070  Biso   1.000  C 
  C124     1.0000 0.43640  0.49370  0.91180  Biso   1.000  C 
  H71      1.0000 0.42660  0.45870  0.88610  Biso   1.000  H 
  H72      1.0000 0.47810  0.55620  0.88440  Biso   1.000  H 
  H73      1.0000 0.47370  0.62610  0.00960  Biso   1.000  H 
  H74      1.0000 0.42110  0.52840  0.00750  Biso   1.000  H 
  I15      1.0000 0.34860  0.40470  0.01160  Biso   1.000  I 
  C125     1.0000 0.19550  0.82240  0.78310  Biso   1.000  C 
  C126     1.0000 0.16420  0.85830  0.75470  Biso   1.000  C 
  H75      1.0000 0.14600  0.82020  0.73620  Biso   1.000  H 
  C127     1.0000 0.15890  0.95020  0.75280  Biso   1.000  C 
  H76      1.0000 0.13660  0.97410  0.73330  Biso   1.000  H 
  N46      1.0000 0.18420  0.00660  0.77750  Biso   1.000  N 
  Zn12     1.0000 0.17299  0.14343  0.77191  Biso   1.000  Zn
  I16      1.0000 0.12335  0.16320  0.69439  Biso   1.000  I 
  I17      1.0000 0.23214  0.23470  0.79047  Biso   1.000  I 
  N47      1.0000 0.13930  0.16120  0.82130  Biso   1.000  N 
  C128     1.0000 0.10550  0.12090  0.81790  Biso   1.000  C 
  H77      1.0000 0.09740  0.08140  0.79360  Biso   1.000  H 
  C129     1.0000 0.08030  0.13250  0.84830  Biso   1.000  C 
  H78      1.0000 0.05550  0.10260  0.84460  Biso   1.000  H 
  C130     1.0000 0.09250  0.18830  0.88360  Biso   1.000  C 
  C131     1.0000 0.12820  0.23190  0.88710  Biso   1.000  C 
  C132     1.0000 0.15110  0.21590  0.85580  Biso   1.000  C 
  H79      1.0000 0.17610  0.24460  0.85870  Biso   1.000  H 
  H80      1.0000 0.13680  0.27250  0.91090  Biso   1.000  H 
  C133     1.0000 0.21390  0.97140  0.80470  Biso   1.000  C 
  C134     1.0000 0.22120  0.87950  0.80930  Biso   1.000  C 
  H81      1.0000 0.24320  0.85720  0.82980  Biso   1.000  H 
  H82      1.0000 0.23180  0.01100  0.82270  Biso   1.000  H 
  H83      1.0000 0.12250  0.63540  0.69240  Biso   1.000  H 
  I18      1.0000 0.11990  0.26270  0.55663  Biso   1.000  I 
  N48      1.0000 0.02064  0.77180  0.47579  Biso   1.000  N 
  C135     1.0000 0.96470  0.90890  0.48380  Biso   1.000  C 
  H84      1.0000 0.97370  0.87390  0.50960  Biso   1.000  H 
  C136     1.0000 0.93320  0.96640  0.48210  Biso   1.000  C 
  H85      1.0000 0.92110  0.97160  0.50750  Biso   1.000  H 
  I19      1.0000 0.89130  0.24410  0.40021  Biso   1.000  I 
  I20      1.0000 0.84860  0.09530  0.51160  Biso   1.000  I 
  C137     1.0000 0.63030  0.92390  0.18660  Biso   1.000  C 
  H86      1.0000 0.62250  0.86460  0.19240  Biso   1.000  H 
  C138     1.0000 0.60820  0.97310  0.15310  Biso   1.000  C 
  H87      1.0000 0.58490  0.94690  0.13660  Biso   1.000  H 
  I21      1.0000 0.61990  0.23730  0.05663  Biso   1.000  I 
  C139     1.0000 0.62820  0.73190  0.88710  Biso   1.000  C 
  C140     1.0000 0.65110  0.71590  0.85580  Biso   1.000  C 
  H88      1.0000 0.67610  0.74460  0.85870  Biso   1.000  H 
  H89      1.0000 0.63680  0.77250  0.91090  Biso   1.000  H 
  H90      1.0000 0.59740  0.58140  0.79360  Biso   1.000  H 
  I22      1.0000 0.73214  0.73470  0.79047  Biso   1.000  I 
  H91      1.0000 0.64600  0.32020  0.73620  Biso   1.000  H 
  C141     1.0000 0.79320  0.09980  0.87200  Biso   1.000  C 
  H92      1.0000 0.78890  0.16170  0.87690  Biso   1.000  H 
  C142     1.0000 0.82260  0.05200  0.90020  Biso   1.000  C 
  H93      1.0000 0.83800  0.08250  0.92470  Biso   1.000  H 
  H94      1.0000 0.81410  0.86320  0.85540  Biso   1.000  H 
  I23      1.0000 0.84860  0.90470  0.01160  Biso   1.000  I 
  C143     1.0000 0.08420  0.42650  0.99680  Biso   1.000  C 
  H95      1.0000 0.10240  0.41470  0.97770  Biso   1.000  H 
  C144     1.0000 0.08850  0.50200  0.02340  Biso   1.000  C 
  H96      1.0000 0.11000  0.54140  0.02230  Biso   1.000  H 
  I24      1.0000 0.11990  0.73730  0.05663  Biso   1.000  I 
