data_image0
_cell_length_a       21.176
_cell_length_b       21.176
_cell_length_c       14.9203
_cell_angle_alpha    90
_cell_angle_beta     90
_cell_angle_gamma    120

_symmetry_space_group_name_H-M    "P 1"
_symmetry_int_tables_number       1

loop_
  _symmetry_equiv_pos_as_xyz
  'x, y, z'

loop_
  _atom_site_label
  _atom_site_occupancy
  _atom_site_fract_x
  _atom_site_fract_y
  _atom_site_fract_z
  _atom_site_thermal_displace_type
  _atom_site_B_iso_or_equiv
  _atom_site_type_symbol
  Zn1      1.0000 0.43130  0.71565  0.41670  Biso   1.000  Zn
  O1       1.0000 0.36610  0.62380  0.48103  Biso   1.000  O 
  Co1      1.0000 0.32429  0.67571  0.58330  Biso   1.000  Co
  O2       1.0000 0.23110  0.57900  0.55347  Biso   1.000  O 
  C1       1.0000 0.19700  0.52080  0.59367  Biso   1.000  C 
  C2       1.0000 0.13880  0.45690  0.54237  Biso   1.000  C 
  C3       1.0000 0.11870  0.46270  0.45497  Biso   1.000  C 
  C4       1.0000 0.06700  0.40170  0.40967  Biso   1.000  C 
  C5       1.0000 0.03540  0.33270  0.44967  Biso   1.000  C 
  C6       1.0000 0.05460  0.32760  0.53717  Biso   1.000  C 
  H1       1.0000 0.03250  0.28230  0.56507  Biso   1.000  H 
  C7       1.0000 0.10540  0.38780  0.58377  Biso   1.000  C 
  H2       1.0000 0.11760  0.38290  0.64227  Biso   1.000  H 
  C8       1.0000 0.98010  0.26630  0.39397  Biso   1.000  C 
  C9       1.0000 0.91890  0.27850  0.35657  Biso   1.000  C 
  C10      1.0000 0.88690  0.25430  0.27327  Biso   1.000  C 
  H3       1.0000 0.90170  0.22850  0.23677  Biso   1.000  H 
  C11      1.0000 0.83400  0.26790  0.24437  Biso   1.000  C 
  H4       1.0000 0.81290  0.25070  0.18847  Biso   1.000  H 
  C12      1.0000 0.81040  0.30750  0.29697  Biso   1.000  C 
  C13      1.0000 0.84170  0.33100  0.38107  Biso   1.000  C 
  H5       1.0000 0.82700  0.35700  0.41727  Biso   1.000  H 
  C14      1.0000 0.89400  0.31600  0.41077  Biso   1.000  C 
  H6       1.0000 0.91350  0.33090  0.46787  Biso   1.000  H 
  C15      1.0000 0.75680  0.32770  0.26207  Biso   1.000  C 
  O3       1.0000 0.74230  0.36610  0.31437  Biso   1.000  O 
  Zn2      1.0000 0.71565  0.43130  0.25003  Biso   1.000  Zn
  O4       1.0000 0.62380  0.36610  0.18563  Biso   1.000  O 
  Co2      1.0000 0.67571  0.32429  0.08330  Biso   1.000  Co
  O5       1.0000 0.73150  0.30670  0.18587  Biso   1.000  O 
  O6       1.0000 0.57900  0.23110  0.11320  Biso   1.000  O 
  C16      1.0000 0.52080  0.19700  0.07300  Biso   1.000  C 
  C17      1.0000 0.45690  0.13880  0.12430  Biso   1.000  C 
  C18      1.0000 0.38780  0.10540  0.08290  Biso   1.000  C 
  C19      1.0000 0.32760  0.05460  0.12950  Biso   1.000  C 
  H7       1.0000 0.28230  0.03250  0.10160  Biso   1.000  H 
  C20      1.0000 0.33270  0.03540  0.21700  Biso   1.000  C 
  C21      1.0000 0.26630  0.98010  0.27270  Biso   1.000  C 
  C22      1.0000 0.19480  0.94140  0.21570  Biso   1.000  C 
  F1       1.0000 0.13970  0.88900  0.26300  Biso   1.000  F 
  F2       1.0000 0.17300  0.98650  0.18670  Biso   1.000  F 
  F3       1.0000 0.20380  0.90810  0.14610  Biso   1.000  F 
  C23      1.0000 0.27850  0.91890  0.31010  Biso   1.000  C 
  C24      1.0000 0.25430  0.88690  0.39340  Biso   1.000  C 
  H8       1.0000 0.22850  0.90170  0.42990  Biso   1.000  H 
  C25      1.0000 0.26790  0.83400  0.42230  Biso   1.000  C 
  C26      1.0000 0.30750  0.81040  0.36970  Biso   1.000  C 
  C27      1.0000 0.33100  0.84170  0.28560  Biso   1.000  C 
  H9       1.0000 0.35700  0.82700  0.24940  Biso   1.000  H 
  C28      1.0000 0.31600  0.89400  0.25590  Biso   1.000  C 
  H10      1.0000 0.33090  0.91350  0.19880  Biso   1.000  H 
  C29      1.0000 0.32770  0.75680  0.40460  Biso   1.000  C 
  O7       1.0000 0.36610  0.74230  0.35230  Biso   1.000  O 
  Co3      1.0000 0.32429  0.64858  0.24997  Biso   1.000  Co
  O8       1.0000 0.26850  0.57520  0.14747  Biso   1.000  O 
  C30      1.0000 0.24320  0.57090  0.07127  Biso   1.000  C 
  O9       1.0000 0.25770  0.62380  0.01897  Biso   1.000  O 
  Zn3      1.0000 0.28435  0.71565  0.08337  Biso   1.000  Zn
  O10      1.0000 0.20410  0.69660  0.15997  Biso   1.000  O 
  C31      1.0000 0.19700  0.67620  0.23967  Biso   1.000  C 
  C32      1.0000 0.13880  0.68190  0.29097  Biso   1.000  C 
  C33      1.0000 0.10540  0.71760  0.24957  Biso   1.000  C 
  H11      1.0000 0.11760  0.73470  0.19107  Biso   1.000  H 
  C34      1.0000 0.05460  0.72700  0.29617  Biso   1.000  C 
  H12      1.0000 0.03250  0.75020  0.26827  Biso   1.000  H 
  C35      1.0000 0.03540  0.70270  0.38367  Biso   1.000  C 
  C36      1.0000 0.98010  0.71380  0.43937  Biso   1.000  C 
  C37      1.0000 0.91890  0.64040  0.47677  Biso   1.000  C 
  C38      1.0000 0.88690  0.63260  0.56007  Biso   1.000  C 
  H13      1.0000 0.90170  0.67320  0.59657  Biso   1.000  H 
  C39      1.0000 0.83400  0.56610  0.58897  Biso   1.000  C 
  H14      1.0000 0.81290  0.56220  0.64487  Biso   1.000  H 
  C40      1.0000 0.81040  0.50290  0.53637  Biso   1.000  C 
  C41      1.0000 0.84170  0.51070  0.45227  Biso   1.000  C 
  H15      1.0000 0.82700  0.47000  0.41607  Biso   1.000  H 
  C42      1.0000 0.89400  0.57800  0.42257  Biso   1.000  C 
  H16      1.0000 0.91350  0.58260  0.36547  Biso   1.000  H 
  C43      1.0000 0.75680  0.42910  0.57127  Biso   1.000  C 
  O11      1.0000 0.74230  0.37620  0.51897  Biso   1.000  O 
  Zn4      1.0000 0.71565  0.28435  0.58337  Biso   1.000  Zn
  O12      1.0000 0.69660  0.20410  0.50670  Biso   1.000  O 
  C44      1.0000 0.67620  0.19700  0.42700  Biso   1.000  C 
  C45      1.0000 0.68190  0.13880  0.37570  Biso   1.000  C 
  C46      1.0000 0.65600  0.11870  0.28830  Biso   1.000  C 
  H17      1.0000 0.63230  0.14030  0.26040  Biso   1.000  H 
  C47      1.0000 0.66530  0.06700  0.24300  Biso   1.000  C 
  H18      1.0000 0.64650  0.05300  0.18550  Biso   1.000  H 
  C48      1.0000 0.70270  0.03540  0.28300  Biso   1.000  C 
  C49      1.0000 0.72700  0.05460  0.37050  Biso   1.000  C 
  H19      1.0000 0.75020  0.03250  0.39840  Biso   1.000  H 
  C50      1.0000 0.71760  0.10540  0.41710  Biso   1.000  C 
  H20      1.0000 0.73470  0.11760  0.47560  Biso   1.000  H 
  C51      1.0000 0.71380  0.98010  0.22730  Biso   1.000  C 
  C52      1.0000 0.64040  0.91890  0.18990  Biso   1.000  C 
  C53      1.0000 0.63260  0.88690  0.10660  Biso   1.000  C 
  H21      1.0000 0.67320  0.90170  0.07010  Biso   1.000  H 
  C54      1.0000 0.56610  0.83400  0.07770  Biso   1.000  C 
  C55      1.0000 0.50290  0.81040  0.13030  Biso   1.000  C 
  C56      1.0000 0.51070  0.84170  0.21440  Biso   1.000  C 
  H22      1.0000 0.47000  0.82700  0.25060  Biso   1.000  H 
  C57      1.0000 0.57800  0.89400  0.24410  Biso   1.000  C 
  H23      1.0000 0.58260  0.91350  0.30120  Biso   1.000  H 
  C58      1.0000 0.42910  0.75680  0.09540  Biso   1.000  C 
  O13      1.0000 0.37620  0.74230  0.14770  Biso   1.000  O 
  O14      1.0000 0.42480  0.73150  0.01920  Biso   1.000  O 
  Co4      1.0000 0.35142  0.67571  0.91663  Biso   1.000  Co
  O15      1.0000 0.25770  0.63390  0.81437  Biso   1.000  O 
  Zn5      1.0000 0.28435  0.56870  0.75003  Biso   1.000  Zn
  O16      1.0000 0.20410  0.50750  0.67337  Biso   1.000  O 
  O17      1.0000 0.30340  0.50750  0.82663  Biso   1.000  O 
  C59      1.0000 0.32380  0.52080  0.90633  Biso   1.000  C 
  C60      1.0000 0.31810  0.45690  0.95763  Biso   1.000  C 
  C61      1.0000 0.28240  0.38780  0.91623  Biso   1.000  C 
  H24      1.0000 0.26530  0.38290  0.85773  Biso   1.000  H 
  C62      1.0000 0.27300  0.32760  0.96283  Biso   1.000  C 
  H25      1.0000 0.24980  0.28230  0.93493  Biso   1.000  H 
  C63      1.0000 0.29730  0.33270  0.05033  Biso   1.000  C 
  C64      1.0000 0.28620  0.26630  0.10603  Biso   1.000  C 
  C65      1.0000 0.22890  0.25310  0.17953  Biso   1.000  C 
  F4       1.0000 0.26040  0.30680  0.24323  Biso   1.000  F 
  F5       1.0000 0.20340  0.19120  0.22273  Biso   1.000  F 
  F6       1.0000 0.17190  0.25730  0.14473  Biso   1.000  F 
  C66      1.0000 0.35960  0.27850  0.14343  Biso   1.000  C 
  C67      1.0000 0.36740  0.25430  0.22673  Biso   1.000  C 
  H26      1.0000 0.32680  0.22850  0.26323  Biso   1.000  H 
  C68      1.0000 0.43390  0.26790  0.25563  Biso   1.000  C 
  C69      1.0000 0.49710  0.30750  0.20303  Biso   1.000  C 
  C70      1.0000 0.48930  0.33100  0.11893  Biso   1.000  C 
  H27      1.0000 0.53000  0.35700  0.08273  Biso   1.000  H 
  C71      1.0000 0.42200  0.31600  0.08923  Biso   1.000  C 
  H28      1.0000 0.41740  0.33090  0.03213  Biso   1.000  H 
  C72      1.0000 0.57090  0.32770  0.23793  Biso   1.000  C 
  O18      1.0000 0.57520  0.30670  0.31413  Biso   1.000  O 
  Co5      1.0000 0.64858  0.32429  0.41663  Biso   1.000  Co
  O19      1.0000 0.65210  0.23110  0.38680  Biso   1.000  O 
  O20      1.0000 0.57520  0.26850  0.51920  Biso   1.000  O 
  C73      1.0000 0.57090  0.24320  0.59540  Biso   1.000  C 
  O21      1.0000 0.62380  0.25770  0.64770  Biso   1.000  O 
  Co6      1.0000 0.67571  0.35142  0.74997  Biso   1.000  Co
  O22      1.0000 0.63390  0.25770  0.85230  Biso   1.000  O 
  Zn6      1.0000 0.56870  0.28435  0.91670  Biso   1.000  Zn
  O23      1.0000 0.50750  0.30340  0.84003  Biso   1.000  O 
  C74      1.0000 0.52080  0.32380  0.76033  Biso   1.000  C 
  C75      1.0000 0.45690  0.31810  0.70903  Biso   1.000  C 
  C76      1.0000 0.38780  0.28240  0.75043  Biso   1.000  C 
  C77      1.0000 0.32760  0.27300  0.70383  Biso   1.000  C 
  H29      1.0000 0.28230  0.24980  0.73173  Biso   1.000  H 
  C78      1.0000 0.33270  0.29730  0.61633  Biso   1.000  C 
  C79      1.0000 0.26630  0.28620  0.56063  Biso   1.000  C 
  C80      1.0000 0.25310  0.22890  0.48713  Biso   1.000  C 
  F7       1.0000 0.30680  0.26040  0.42343  Biso   1.000  F 
  F8       1.0000 0.19120  0.20340  0.44393  Biso   1.000  F 
  F9       1.0000 0.25730  0.17190  0.52193  Biso   1.000  F 
  C81      1.0000 0.19480  0.25340  0.61763  Biso   1.000  C 
  F10      1.0000 0.13970  0.25070  0.57033  Biso   1.000  F 
  F11      1.0000 0.17300  0.18650  0.64663  Biso   1.000  F 
  F12      1.0000 0.20380  0.29570  0.68723  Biso   1.000  F 
  C82      1.0000 0.27850  0.35960  0.52323  Biso   1.000  C 
  C83      1.0000 0.25430  0.36740  0.43993  Biso   1.000  C 
  H30      1.0000 0.22850  0.32680  0.40343  Biso   1.000  H 
  C84      1.0000 0.26790  0.43390  0.41103  Biso   1.000  C 
  C85      1.0000 0.30750  0.49710  0.46363  Biso   1.000  C 
  C86      1.0000 0.33100  0.48930  0.54773  Biso   1.000  C 
  H31      1.0000 0.35700  0.53000  0.58393  Biso   1.000  H 
  C87      1.0000 0.31600  0.42200  0.57743  Biso   1.000  C 
  H32      1.0000 0.33090  0.41740  0.63453  Biso   1.000  H 
  C88      1.0000 0.32770  0.57090  0.42873  Biso   1.000  C 
  O24      1.0000 0.30670  0.57520  0.35253  Biso   1.000  O 
  H33      1.0000 0.25070  0.43780  0.35513  Biso   1.000  H 
  C89      1.0000 0.40170  0.33470  0.57633  Biso   1.000  C 
  H34      1.0000 0.40650  0.35350  0.51883  Biso   1.000  H 
  C90      1.0000 0.46270  0.34400  0.62163  Biso   1.000  C 
  H35      1.0000 0.50800  0.36770  0.59373  Biso   1.000  H 
  H36      1.0000 0.38290  0.26530  0.80893  Biso   1.000  H 
  O25      1.0000 0.57900  0.34790  0.72013  Biso   1.000  O 
  O26      1.0000 0.50750  0.20410  0.99330  Biso   1.000  O 
  O27      1.0000 0.63390  0.37620  0.98103  Biso   1.000  O 
  C91      1.0000 0.67230  0.42910  0.92873  Biso   1.000  C 
  C92      1.0000 0.69250  0.50290  0.96363  Biso   1.000  C 
  C93      1.0000 0.66900  0.51070  0.04773  Biso   1.000  C 
  H37      1.0000 0.64300  0.47000  0.08393  Biso   1.000  H 
  C94      1.0000 0.68400  0.57800  0.07743  Biso   1.000  C 
  H38      1.0000 0.66910  0.58260  0.13453  Biso   1.000  H 
  C95      1.0000 0.72150  0.64040  0.02323  Biso   1.000  C 
  C96      1.0000 0.74570  0.63260  0.93993  Biso   1.000  C 
  H39      1.0000 0.77150  0.67320  0.90343  Biso   1.000  H 
  C97      1.0000 0.73210  0.56610  0.91103  Biso   1.000  C 
  H40      1.0000 0.74930  0.56220  0.85513  Biso   1.000  H 
  C98      1.0000 0.73370  0.71380  0.06063  Biso   1.000  C 
  C99      1.0000 0.66730  0.70270  0.11633  Biso   1.000  C 
  C100     1.0000 0.67240  0.72700  0.20383  Biso   1.000  C 
  H41      1.0000 0.71770  0.75020  0.23173  Biso   1.000  H 
  C101     1.0000 0.61220  0.71760  0.25043  Biso   1.000  C 
  H42      1.0000 0.61710  0.73470  0.30893  Biso   1.000  H 
  C102     1.0000 0.54310  0.68190  0.20903  Biso   1.000  C 
  C103     1.0000 0.53730  0.65600  0.12163  Biso   1.000  C 
  H43      1.0000 0.49200  0.63230  0.09373  Biso   1.000  H 
  C104     1.0000 0.59830  0.66530  0.07633  Biso   1.000  C 
  H44      1.0000 0.59350  0.64650  0.01883  Biso   1.000  H 
  C105     1.0000 0.47920  0.67620  0.26033  Biso   1.000  C 
  O28      1.0000 0.49250  0.69660  0.34003  Biso   1.000  O 
  O29      1.0000 0.42100  0.65210  0.22013  Biso   1.000  O 
  C106     1.0000 0.80520  0.74660  0.11763  Biso   1.000  C 
  F13      1.0000 0.86030  0.74930  0.07033  Biso   1.000  F 
  F14      1.0000 0.82700  0.81350  0.14663  Biso   1.000  F 
  F15      1.0000 0.79620  0.70430  0.18723  Biso   1.000  F 
  C107     1.0000 0.74690  0.77110  0.98713  Biso   1.000  C 
  F16      1.0000 0.74270  0.82810  0.02193  Biso   1.000  F 
  F17      1.0000 0.69320  0.73960  0.92343  Biso   1.000  F 
  F18      1.0000 0.80880  0.79660  0.94393  Biso   1.000  F 
  O30      1.0000 0.69330  0.42480  0.85253  Biso   1.000  O 
  C108     1.0000 0.67230  0.24320  0.90460  Biso   1.000  C 
  C109     1.0000 0.69250  0.18960  0.86970  Biso   1.000  C 
  C110     1.0000 0.66900  0.15830  0.78560  Biso   1.000  C 
  H45      1.0000 0.64300  0.17300  0.74940  Biso   1.000  H 
  C111     1.0000 0.68400  0.10600  0.75590  Biso   1.000  C 
  H46      1.0000 0.66910  0.08650  0.69880  Biso   1.000  H 
  C112     1.0000 0.72150  0.08110  0.81010  Biso   1.000  C 
  C113     1.0000 0.74570  0.11310  0.89340  Biso   1.000  C 
  H47      1.0000 0.77150  0.09830  0.92990  Biso   1.000  H 
  C114     1.0000 0.73210  0.16600  0.92230  Biso   1.000  C 
  H48      1.0000 0.74930  0.18710  0.97820  Biso   1.000  H 
  C115     1.0000 0.73370  0.01990  0.77270  Biso   1.000  C 
  C116     1.0000 0.80520  0.05860  0.71570  Biso   1.000  C 
  F19      1.0000 0.86030  0.11100  0.76300  Biso   1.000  F 
  F20      1.0000 0.82700  0.01350  0.68670  Biso   1.000  F 
  F21      1.0000 0.79620  0.09190  0.64610  Biso   1.000  F 
  C117     1.0000 0.66730  0.96460  0.71700  Biso   1.000  C 
  C118     1.0000 0.67240  0.94540  0.62950  Biso   1.000  C 
  H49      1.0000 0.71770  0.96750  0.60160  Biso   1.000  H 
  C119     1.0000 0.61220  0.89460  0.58290  Biso   1.000  C 
  H50      1.0000 0.61710  0.88240  0.52440  Biso   1.000  H 
  C120     1.0000 0.54310  0.86120  0.62430  Biso   1.000  C 
  C121     1.0000 0.53730  0.88130  0.71170  Biso   1.000  C 
  H51      1.0000 0.49200  0.85970  0.73960  Biso   1.000  H 
  C122     1.0000 0.59830  0.93300  0.75700  Biso   1.000  C 
  H52      1.0000 0.59350  0.94700  0.81450  Biso   1.000  H 
  C123     1.0000 0.47920  0.80300  0.57300  Biso   1.000  C 
  O31      1.0000 0.49250  0.79590  0.49330  Biso   1.000  O 
  O32      1.0000 0.42100  0.76890  0.61320  Biso   1.000  O 
  C124     1.0000 0.74690  0.97580  0.84620  Biso   1.000  C 
  F22      1.0000 0.80880  0.01220  0.88940  Biso   1.000  F 
  F23      1.0000 0.69320  0.95360  0.90990  Biso   1.000  F 
  F24      1.0000 0.74270  0.91460  0.81140  Biso   1.000  F 
  O33      1.0000 0.69330  0.26850  0.98080  Biso   1.000  O 
  O34      1.0000 0.73150  0.42480  0.64747  Biso   1.000  O 
  O35      1.0000 0.76890  0.34790  0.77987  Biso   1.000  O 
  C125     1.0000 0.80300  0.32380  0.73967  Biso   1.000  C 
  O36      1.0000 0.79590  0.30340  0.65997  Biso   1.000  O 
  C126     1.0000 0.86120  0.31810  0.79097  Biso   1.000  C 
  C127     1.0000 0.89460  0.28240  0.74957  Biso   1.000  C 
  H53      1.0000 0.88240  0.26530  0.69107  Biso   1.000  H 
  C128     1.0000 0.94540  0.27300  0.79617  Biso   1.000  C 
  H54      1.0000 0.96750  0.24980  0.76827  Biso   1.000  H 
  C129     1.0000 0.96460  0.29730  0.88367  Biso   1.000  C 
  C130     1.0000 0.01990  0.28620  0.93937  Biso   1.000  C 
  C131     1.0000 0.05860  0.25340  0.88237  Biso   1.000  C 
  F25      1.0000 0.11100  0.25070  0.92967  Biso   1.000  F 
  F26      1.0000 0.01350  0.18650  0.85337  Biso   1.000  F 
  F27      1.0000 0.09190  0.29570  0.81277  Biso   1.000  F 
  C132     1.0000 0.08110  0.35960  0.97677  Biso   1.000  C 
  C133     1.0000 0.11310  0.36740  0.06007  Biso   1.000  C 
  H55      1.0000 0.09830  0.32680  0.09657  Biso   1.000  H 
  C134     1.0000 0.16600  0.43390  0.08897  Biso   1.000  C 
  C135     1.0000 0.18960  0.49710  0.03637  Biso   1.000  C 
  C136     1.0000 0.15830  0.48930  0.95227  Biso   1.000  C 
  H56      1.0000 0.17300  0.53000  0.91607  Biso   1.000  H 
  C137     1.0000 0.10600  0.42200  0.92257  Biso   1.000  C 
  H57      1.0000 0.08650  0.41740  0.86547  Biso   1.000  H 
  H58      1.0000 0.18710  0.43780  0.14487  Biso   1.000  H 
  C138     1.0000 0.97580  0.22890  0.01287  Biso   1.000  C 
  F28      1.0000 0.01220  0.20340  0.05607  Biso   1.000  F 
  F29      1.0000 0.95360  0.26040  0.07657  Biso   1.000  F 
  F30      1.0000 0.91460  0.17190  0.97807  Biso   1.000  F 
  C139     1.0000 0.93300  0.33470  0.92367  Biso   1.000  C 
  H59      1.0000 0.94700  0.35350  0.98117  Biso   1.000  H 
  C140     1.0000 0.88130  0.34400  0.87837  Biso   1.000  C 
  H60      1.0000 0.85970  0.36770  0.90627  Biso   1.000  H 
  C141     1.0000 0.49710  0.18960  0.63030  Biso   1.000  C 
  C142     1.0000 0.48930  0.15830  0.71440  Biso   1.000  C 
  H61      1.0000 0.53000  0.17300  0.75060  Biso   1.000  H 
  C143     1.0000 0.42200  0.10600  0.74410  Biso   1.000  C 
  C144     1.0000 0.35960  0.08110  0.68990  Biso   1.000  C 
  C145     1.0000 0.36740  0.11310  0.60660  Biso   1.000  C 
  H62      1.0000 0.32680  0.09830  0.57010  Biso   1.000  H 
  C146     1.0000 0.43390  0.16600  0.57770  Biso   1.000  C 
  H63      1.0000 0.43780  0.18710  0.52180  Biso   1.000  H 
  C147     1.0000 0.28620  0.01990  0.72730  Biso   1.000  C 
  C148     1.0000 0.25340  0.05860  0.78430  Biso   1.000  C 
  F31      1.0000 0.25070  0.11100  0.73700  Biso   1.000  F 
  F32      1.0000 0.18650  0.01350  0.81330  Biso   1.000  F 
  F33      1.0000 0.29570  0.09190  0.85390  Biso   1.000  F 
  C149     1.0000 0.29730  0.96460  0.78300  Biso   1.000  C 
  C150     1.0000 0.27300  0.94540  0.87050  Biso   1.000  C 
  H64      1.0000 0.24980  0.96750  0.89840  Biso   1.000  H 
  C151     1.0000 0.28240  0.89460  0.91710  Biso   1.000  C 
  H65      1.0000 0.26530  0.88240  0.97560  Biso   1.000  H 
  C152     1.0000 0.31810  0.86120  0.87570  Biso   1.000  C 
  C153     1.0000 0.34400  0.88130  0.78830  Biso   1.000  C 
  C154     1.0000 0.33470  0.93300  0.74300  Biso   1.000  C 
  H66      1.0000 0.35350  0.94700  0.68550  Biso   1.000  H 
  H67      1.0000 0.36770  0.85970  0.76040  Biso   1.000  H 
  C155     1.0000 0.32380  0.80300  0.92700  Biso   1.000  C 
  O37      1.0000 0.30340  0.79590  0.00670  Biso   1.000  O 
  O38      1.0000 0.34790  0.76890  0.88680  Biso   1.000  O 
  C156     1.0000 0.22890  0.97580  0.65380  Biso   1.000  C 
  F34      1.0000 0.20340  0.01220  0.61060  Biso   1.000  F 
  F35      1.0000 0.26040  0.95360  0.59010  Biso   1.000  F 
  F36      1.0000 0.17190  0.91460  0.68860  Biso   1.000  F 
  H68      1.0000 0.41740  0.08650  0.80120  Biso   1.000  H 
  O39      1.0000 0.65210  0.42100  0.44653  Biso   1.000  O 
  C157     1.0000 0.67620  0.47920  0.40633  Biso   1.000  C 
  C158     1.0000 0.68190  0.54310  0.45763  Biso   1.000  C 
  C159     1.0000 0.71760  0.61220  0.41623  Biso   1.000  C 
  C160     1.0000 0.72700  0.67240  0.46283  Biso   1.000  C 
  H69      1.0000 0.75020  0.71770  0.43493  Biso   1.000  H 
  C161     1.0000 0.70270  0.66730  0.55033  Biso   1.000  C 
  C162     1.0000 0.71380  0.73370  0.60603  Biso   1.000  C 
  C163     1.0000 0.64040  0.72150  0.64343  Biso   1.000  C 
  C164     1.0000 0.63260  0.74570  0.72673  Biso   1.000  C 
  H70      1.0000 0.67320  0.77150  0.76323  Biso   1.000  H 
  C165     1.0000 0.56610  0.73210  0.75563  Biso   1.000  C 
  C166     1.0000 0.50290  0.69250  0.70303  Biso   1.000  C 
  C167     1.0000 0.51070  0.66900  0.61893  Biso   1.000  C 
  H71      1.0000 0.47000  0.64300  0.58273  Biso   1.000  H 
  C168     1.0000 0.57800  0.68400  0.58923  Biso   1.000  C 
  H72      1.0000 0.58260  0.66910  0.53213  Biso   1.000  H 
  C169     1.0000 0.42910  0.67230  0.73793  Biso   1.000  C 
  O40      1.0000 0.37620  0.63390  0.68563  Biso   1.000  O 
  O41      1.0000 0.42480  0.69330  0.81413  Biso   1.000  O 
  H73      1.0000 0.56220  0.74930  0.81153  Biso   1.000  H 
  C170     1.0000 0.74660  0.80520  0.54903  Biso   1.000  C 
  F37      1.0000 0.74930  0.86030  0.59633  Biso   1.000  F 
  F38      1.0000 0.81350  0.82700  0.52003  Biso   1.000  F 
  F39      1.0000 0.70430  0.79620  0.47943  Biso   1.000  F 
  C171     1.0000 0.77110  0.74690  0.67953  Biso   1.000  C 
  F40      1.0000 0.73960  0.69320  0.74323  Biso   1.000  F 
  F41      1.0000 0.79660  0.80880  0.72273  Biso   1.000  F 
  F42      1.0000 0.82810  0.74270  0.64473  Biso   1.000  F 
  C172     1.0000 0.66530  0.59830  0.59033  Biso   1.000  C 
  H74      1.0000 0.64650  0.59350  0.64783  Biso   1.000  H 
  C173     1.0000 0.65600  0.53730  0.54503  Biso   1.000  C 
  H75      1.0000 0.63230  0.49200  0.57293  Biso   1.000  H 
  H76      1.0000 0.73470  0.61710  0.35773  Biso   1.000  H 
  O42      1.0000 0.69660  0.49250  0.32663  Biso   1.000  O 
  H77      1.0000 0.43780  0.25070  0.31153  Biso   1.000  H 
  C174     1.0000 0.25340  0.19480  0.04903  Biso   1.000  C 
  F43      1.0000 0.25070  0.13970  0.09633  Biso   1.000  F 
  F44      1.0000 0.18650  0.17300  0.02003  Biso   1.000  F 
  F45      1.0000 0.29570  0.20380  0.97943  Biso   1.000  F 
  C175     1.0000 0.33470  0.40170  0.09033  Biso   1.000  C 
  H78      1.0000 0.35350  0.40650  0.14783  Biso   1.000  H 
  C176     1.0000 0.34400  0.46270  0.04503  Biso   1.000  C 
  H79      1.0000 0.36770  0.50800  0.07293  Biso   1.000  H 
  O43      1.0000 0.34790  0.57900  0.94653  Biso   1.000  O 
  C177     1.0000 0.24320  0.67230  0.76207  Biso   1.000  C 
  C178     1.0000 0.18960  0.69250  0.79697  Biso   1.000  C 
  C179     1.0000 0.15830  0.66900  0.88107  Biso   1.000  C 
  H80      1.0000 0.17300  0.64300  0.91727  Biso   1.000  H 
  C180     1.0000 0.10600  0.68400  0.91077  Biso   1.000  C 
  H81      1.0000 0.08650  0.66910  0.96787  Biso   1.000  H 
  C181     1.0000 0.08110  0.72150  0.85657  Biso   1.000  C 
  C182     1.0000 0.11310  0.74570  0.77327  Biso   1.000  C 
  H82      1.0000 0.09830  0.77150  0.73677  Biso   1.000  H 
  C183     1.0000 0.16600  0.73210  0.74437  Biso   1.000  C 
  H83      1.0000 0.18710  0.74930  0.68847  Biso   1.000  H 
  C184     1.0000 0.01990  0.73370  0.89397  Biso   1.000  C 
  C185     1.0000 0.05860  0.80520  0.95097  Biso   1.000  C 
  F46      1.0000 0.09190  0.79620  0.02057  Biso   1.000  F 
  F47      1.0000 0.11100  0.86030  0.90367  Biso   1.000  F 
  F48      1.0000 0.01350  0.82700  0.97997  Biso   1.000  F 
  C186     1.0000 0.96460  0.66730  0.94967  Biso   1.000  C 
  C187     1.0000 0.94540  0.67240  0.03717  Biso   1.000  C 
  H84      1.0000 0.96750  0.71770  0.06507  Biso   1.000  H 
  C188     1.0000 0.89460  0.61220  0.08377  Biso   1.000  C 
  H85      1.0000 0.88240  0.61710  0.14227  Biso   1.000  H 
  C189     1.0000 0.86120  0.54310  0.04237  Biso   1.000  C 
  C190     1.0000 0.80300  0.47920  0.09367  Biso   1.000  C 
  O44      1.0000 0.79590  0.49250  0.17337  Biso   1.000  O 
  O45      1.0000 0.76890  0.42100  0.05347  Biso   1.000  O 
  C191     1.0000 0.88130  0.53730  0.95497  Biso   1.000  C 
  H86      1.0000 0.85970  0.49200  0.92707  Biso   1.000  H 
  C192     1.0000 0.93300  0.59830  0.90967  Biso   1.000  C 
  H87      1.0000 0.94700  0.59350  0.85217  Biso   1.000  H 
  C193     1.0000 0.97580  0.74690  0.82047  Biso   1.000  C 
  F49      1.0000 0.01220  0.80880  0.77727  Biso   1.000  F 
  F50      1.0000 0.95360  0.69320  0.75677  Biso   1.000  F 
  F51      1.0000 0.91460  0.74270  0.85527  Biso   1.000  F 
  O46      1.0000 0.26850  0.69330  0.68587  Biso   1.000  O 
  H88      1.0000 0.56220  0.81290  0.02180  Biso   1.000  H 
  C194     1.0000 0.74660  0.94140  0.28430  Biso   1.000  C 
  F52      1.0000 0.74930  0.88900  0.23700  Biso   1.000  F 
  F53      1.0000 0.81350  0.98650  0.31330  Biso   1.000  F 
  F54      1.0000 0.70430  0.90810  0.35390  Biso   1.000  F 
  C195     1.0000 0.77110  0.02420  0.15380  Biso   1.000  C 
  F55      1.0000 0.73960  0.04640  0.09010  Biso   1.000  F 
  F56      1.0000 0.79660  0.98780  0.11060  Biso   1.000  F 
  F57      1.0000 0.82810  0.08540  0.18860  Biso   1.000  F 
  C196     1.0000 0.94140  0.74660  0.38237  Biso   1.000  C 
  F58      1.0000 0.88900  0.74930  0.42967  Biso   1.000  F 
  F59      1.0000 0.98650  0.81350  0.35337  Biso   1.000  F 
  F60      1.0000 0.90810  0.70430  0.31277  Biso   1.000  F 
  C197     1.0000 0.02420  0.77110  0.51287  Biso   1.000  C 
  F61      1.0000 0.04640  0.73960  0.57657  Biso   1.000  F 
  F62      1.0000 0.98780  0.79660  0.55607  Biso   1.000  F 
  F63      1.0000 0.08540  0.82810  0.47807  Biso   1.000  F 
  C198     1.0000 0.06700  0.66530  0.42367  Biso   1.000  C 
  H89      1.0000 0.05300  0.64650  0.48117  Biso   1.000  H 
  C199     1.0000 0.11870  0.65600  0.37837  Biso   1.000  C 
  H90      1.0000 0.14030  0.63230  0.40627  Biso   1.000  H 
  O47      1.0000 0.23110  0.65210  0.27987  Biso   1.000  O 
  O48      1.0000 0.30670  0.73150  0.48080  Biso   1.000  O 
  H91      1.0000 0.25070  0.81290  0.47820  Biso   1.000  H 
  C200     1.0000 0.25310  0.02420  0.34620  Biso   1.000  C 
  F64      1.0000 0.30680  0.04640  0.40990  Biso   1.000  F 
  F65      1.0000 0.19120  0.98780  0.38940  Biso   1.000  F 
  F66      1.0000 0.25730  0.08540  0.31140  Biso   1.000  F 
  C201     1.0000 0.40170  0.06700  0.25700  Biso   1.000  C 
  H92      1.0000 0.40650  0.05300  0.31450  Biso   1.000  H 
  C202     1.0000 0.46270  0.11870  0.21170  Biso   1.000  C 
  H93      1.0000 0.50800  0.14030  0.23960  Biso   1.000  H 
  H94      1.0000 0.38290  0.11760  0.02440  Biso   1.000  H 
  C203     1.0000 0.94140  0.19480  0.45097  Biso   1.000  C 
  F67      1.0000 0.88900  0.13970  0.40367  Biso   1.000  F 
  F68      1.0000 0.98650  0.17300  0.47997  Biso   1.000  F 
  F69      1.0000 0.90810  0.20380  0.52057  Biso   1.000  F 
  C204     1.0000 0.02420  0.25310  0.32047  Biso   1.000  C 
  F70      1.0000 0.04640  0.30680  0.25677  Biso   1.000  F 
  F71      1.0000 0.98780  0.19120  0.27727  Biso   1.000  F 
  F72      1.0000 0.08540  0.25730  0.35527  Biso   1.000  F 
  H95      1.0000 0.05300  0.40650  0.35217  Biso   1.000  H 
  H96      1.0000 0.14030  0.50800  0.42707  Biso   1.000  H 
