data_image0
_cell_length_a       13.8237
_cell_length_b       25.7839
_cell_length_c       16.4412
_cell_angle_alpha    90
_cell_angle_beta     111.467
_cell_angle_gamma    90

_symmetry_space_group_name_H-M    "P 1"
_symmetry_int_tables_number       1

loop_
  _symmetry_equiv_pos_as_xyz
  'x, y, z'

loop_
  _atom_site_label
  _atom_site_occupancy
  _atom_site_fract_x
  _atom_site_fract_y
  _atom_site_fract_z
  _atom_site_thermal_displace_type
  _atom_site_B_iso_or_equiv
  _atom_site_type_symbol
  C1       1.0000 0.77450  0.33540  0.43760  Biso   1.000  C 
  C2       1.0000 0.22550  0.83540  0.06240  Biso   1.000  C 
  C3       1.0000 0.22550  0.66460  0.56240  Biso   1.000  C 
  C4       1.0000 0.77450  0.16460  0.93760  Biso   1.000  C 
  H1       1.0000 0.76420  0.35250  0.38310  Biso   1.000  H 
  H2       1.0000 0.23580  0.85250  0.11690  Biso   1.000  H 
  H3       1.0000 0.23580  0.64750  0.61690  Biso   1.000  H 
  H4       1.0000 0.76420  0.14750  0.88310  Biso   1.000  H 
  H5       1.0000 0.84540  0.32410  0.46360  Biso   1.000  H 
  H6       1.0000 0.15460  0.82410  0.03640  Biso   1.000  H 
  H7       1.0000 0.15460  0.67590  0.53640  Biso   1.000  H 
  H8       1.0000 0.84540  0.17590  0.96360  Biso   1.000  H 
  H9       1.0000 0.75940  0.35910  0.47640  Biso   1.000  H 
  H10      1.0000 0.24060  0.85910  0.02360  Biso   1.000  H 
  H11      1.0000 0.24060  0.64090  0.52360  Biso   1.000  H 
  H12      1.0000 0.75940  0.14090  0.97640  Biso   1.000  H 
  C5       1.0000 0.70540  0.29060  0.42190  Biso   1.000  C 
  C6       1.0000 0.29460  0.79060  0.07810  Biso   1.000  C 
  C7       1.0000 0.29460  0.70940  0.57810  Biso   1.000  C 
  C8       1.0000 0.70540  0.20940  0.92190  Biso   1.000  C 
  C9       1.0000 0.70630  0.25827  0.49710  Biso   1.000  C 
  C10      1.0000 0.29370  0.75827  0.00290  Biso   1.000  C 
  C11      1.0000 0.29370  0.74173  0.50290  Biso   1.000  C 
  C12      1.0000 0.70630  0.24173  0.99710  Biso   1.000  C 
  C13      1.0000 0.65290  0.21230  0.48170  Biso   1.000  C 
  C14      1.0000 0.34710  0.71230  0.01830  Biso   1.000  C 
  C15      1.0000 0.34710  0.78770  0.51830  Biso   1.000  C 
  C16      1.0000 0.65290  0.28770  0.98170  Biso   1.000  C 
  H13      1.0000 0.61840  0.20110  0.42460  Biso   1.000  H 
  H14      1.0000 0.38160  0.70110  0.07540  Biso   1.000  H 
  H15      1.0000 0.38160  0.79890  0.57540  Biso   1.000  H 
  H16      1.0000 0.61840  0.29890  0.92460  Biso   1.000  H 
  C17      1.0000 0.65010  0.18240  0.55110  Biso   1.000  C 
  C18      1.0000 0.34990  0.68240  0.94890  Biso   1.000  C 
  C19      1.0000 0.34990  0.81760  0.44890  Biso   1.000  C 
  C20      1.0000 0.65010  0.31760  0.05110  Biso   1.000  C 
  H17      1.0000 0.61850  0.14990  0.54090  Biso   1.000  H 
  H18      1.0000 0.38150  0.64990  0.95910  Biso   1.000  H 
  H19      1.0000 0.38150  0.85010  0.45910  Biso   1.000  H 
  H20      1.0000 0.61850  0.35010  0.04090  Biso   1.000  H 
  C21      1.0000 0.69470  0.20118  0.63540  Biso   1.000  C 
  C22      1.0000 0.30530  0.70118  0.86460  Biso   1.000  C 
  C23      1.0000 0.30530  0.79882  0.36460  Biso   1.000  C 
  C24      1.0000 0.69470  0.29882  0.13540  Biso   1.000  C 
  H21      1.0000 0.69100  0.18160  0.68170  Biso   1.000  H 
  H22      1.0000 0.30900  0.68160  0.81830  Biso   1.000  H 
  H23      1.0000 0.30900  0.81840  0.31830  Biso   1.000  H 
  H24      1.0000 0.69100  0.31840  0.18170  Biso   1.000  H 
  C25      1.0000 0.74470  0.24845  0.65180  Biso   1.000  C 
  C26      1.0000 0.25530  0.74845  0.84820  Biso   1.000  C 
  C27      1.0000 0.25530  0.75155  0.34820  Biso   1.000  C 
  C28      1.0000 0.74470  0.25155  0.15180  Biso   1.000  C 
  C29      1.0000 0.75480  0.27575  0.58280  Biso   1.000  C 
  C30      1.0000 0.24520  0.77575  0.91720  Biso   1.000  C 
  C31      1.0000 0.24520  0.72425  0.41720  Biso   1.000  C 
  C32      1.0000 0.75480  0.22425  0.08280  Biso   1.000  C 
  H25      1.0000 0.79430  0.30600  0.59370  Biso   1.000  H 
  H26      1.0000 0.20570  0.80600  0.90630  Biso   1.000  H 
  H27      1.0000 0.20570  0.69400  0.40630  Biso   1.000  H 
  H28      1.0000 0.79430  0.19400  0.09370  Biso   1.000  H 
  C33      1.0000 0.76890  0.27336  0.73950  Biso   1.000  C 
  C34      1.0000 0.23110  0.77336  0.76050  Biso   1.000  C 
  C35      1.0000 0.23110  0.72664  0.26050  Biso   1.000  C 
  C36      1.0000 0.76890  0.22664  0.23950  Biso   1.000  C 
  H29      1.0000 0.77820  0.24730  0.78520  Biso   1.000  H 
  H30      1.0000 0.22180  0.74730  0.71480  Biso   1.000  H 
  H31      1.0000 0.22180  0.75270  0.21480  Biso   1.000  H 
  H32      1.0000 0.77820  0.25270  0.28520  Biso   1.000  H 
  C37      1.0000 0.68520  0.31640  0.74000  Biso   1.000  C 
  C38      1.0000 0.31480  0.81640  0.76000  Biso   1.000  C 
  C39      1.0000 0.31480  0.68360  0.26000  Biso   1.000  C 
  C40      1.0000 0.68520  0.18360  0.24000  Biso   1.000  C 
  H33      1.0000 0.67050  0.31370  0.79380  Biso   1.000  H 
  H34      1.0000 0.32950  0.81370  0.70620  Biso   1.000  H 
  H35      1.0000 0.32950  0.68630  0.20620  Biso   1.000  H 
  H36      1.0000 0.67050  0.18630  0.29380  Biso   1.000  H 
  C41      1.0000 0.76820  0.35885  0.75010  Biso   1.000  C 
  C42      1.0000 0.23180  0.85885  0.74990  Biso   1.000  C 
  C43      1.0000 0.23180  0.64115  0.24990  Biso   1.000  C 
  C44      1.0000 0.76820  0.14115  0.25010  Biso   1.000  C 
  H37      1.0000 0.75640  0.37290  0.69180  Biso   1.000  H 
  H38      1.0000 0.24360  0.87290  0.80820  Biso   1.000  H 
  H39      1.0000 0.24360  0.62710  0.30820  Biso   1.000  H 
  H40      1.0000 0.75640  0.12710  0.19180  Biso   1.000  H 
  C45      1.0000 0.85540  0.31583  0.77010  Biso   1.000  C 
  C46      1.0000 0.14460  0.81583  0.72990  Biso   1.000  C 
  C47      1.0000 0.14460  0.68417  0.22990  Biso   1.000  C 
  C48      1.0000 0.85540  0.18417  0.27010  Biso   1.000  C 
  H41      1.0000 0.89380  0.31840  0.73060  Biso   1.000  H 
  H42      1.0000 0.10620  0.81840  0.76940  Biso   1.000  H 
  H43      1.0000 0.10620  0.68160  0.26940  Biso   1.000  H 
  H44      1.0000 0.89380  0.18160  0.23060  Biso   1.000  H 
  C49      1.0000 0.71340  0.41150  0.85610  Biso   1.000  C 
  C50      1.0000 0.28660  0.91150  0.64390  Biso   1.000  C 
  C51      1.0000 0.28660  0.58850  0.14390  Biso   1.000  C 
  C52      1.0000 0.71340  0.08850  0.35610  Biso   1.000  C 
  H45      1.0000 0.66200  0.38710  0.85120  Biso   1.000  H 
  H46      1.0000 0.33800  0.88710  0.64880  Biso   1.000  H 
  H47      1.0000 0.33800  0.61290  0.14880  Biso   1.000  H 
  H48      1.0000 0.66200  0.11290  0.35120  Biso   1.000  H 
  C53      1.0000 0.77900  0.40411  0.81090  Biso   1.000  C 
  C54      1.0000 0.22100  0.90411  0.68910  Biso   1.000  C 
  C55      1.0000 0.22100  0.59589  0.18910  Biso   1.000  C 
  C56      1.0000 0.77900  0.09589  0.31090  Biso   1.000  C 
  C57      1.0000 0.85810  0.44000  0.82270  Biso   1.000  C 
  C58      1.0000 0.14190  0.94000  0.67730  Biso   1.000  C 
  C59      1.0000 0.14190  0.56000  0.17730  Biso   1.000  C 
  C60      1.0000 0.85810  0.06000  0.32270  Biso   1.000  C 
  H49      1.0000 0.90510  0.43420  0.79510  Biso   1.000  H 
  H50      1.0000 0.09490  0.93420  0.70490  Biso   1.000  H 
  H51      1.0000 0.09490  0.56580  0.20490  Biso   1.000  H 
  H52      1.0000 0.90510  0.06580  0.29510  Biso   1.000  H 
  C61      1.0000 0.86990  0.48400  0.87350  Biso   1.000  C 
  C62      1.0000 0.13010  0.98400  0.62650  Biso   1.000  C 
  C63      1.0000 0.13010  0.51600  0.12650  Biso   1.000  C 
  C64      1.0000 0.86990  0.01600  0.37350  Biso   1.000  C 
  C65      1.0000 0.79920  0.49260  0.91570  Biso   1.000  C 
  C66      1.0000 0.20080  0.99260  0.58430  Biso   1.000  C 
  C67      1.0000 0.20080  0.50740  0.08430  Biso   1.000  C 
  C68      1.0000 0.79920  0.00740  0.41570  Biso   1.000  C 
  H53      1.0000 0.80300  0.52290  0.94750  Biso   1.000  H 
  H54      1.0000 0.19700  0.02290  0.55250  Biso   1.000  H 
  H55      1.0000 0.19700  0.47710  0.05250  Biso   1.000  H 
  H56      1.0000 0.80300  0.97710  0.44750  Biso   1.000  H 
  C69      1.0000 0.72300  0.45540  0.90970  Biso   1.000  C 
  C70      1.0000 0.27700  0.95540  0.59030  Biso   1.000  C 
  C71      1.0000 0.27700  0.54460  0.09030  Biso   1.000  C 
  C72      1.0000 0.72300  0.04460  0.40970  Biso   1.000  C 
  H57      1.0000 0.67910  0.45950  0.94070  Biso   1.000  H 
  H58      1.0000 0.32090  0.95950  0.55930  Biso   1.000  H 
  H59      1.0000 0.32090  0.54050  0.05930  Biso   1.000  H 
  H60      1.0000 0.67910  0.04050  0.44070  Biso   1.000  H 
  C73      1.0000 0.95770  0.52110  0.88290  Biso   1.000  C 
  C74      1.0000 0.04230  0.02110  0.61710  Biso   1.000  C 
  C75      1.0000 0.04230  0.47890  0.11710  Biso   1.000  C 
  C76      1.0000 0.95770  0.97890  0.38290  Biso   1.000  C 
  C77      1.0000 0.95650  0.57330  0.92340  Biso   1.000  C 
  C78      1.0000 0.04350  0.07330  0.57660  Biso   1.000  C 
  C79      1.0000 0.04350  0.42670  0.07660  Biso   1.000  C 
  C80      1.0000 0.95650  0.92670  0.42340  Biso   1.000  C 
  H61      1.0000 0.02000  0.59130  0.93100  Biso   1.000  H 
  H62      1.0000 0.98000  0.09130  0.56900  Biso   1.000  H 
  H63      1.0000 0.98000  0.40870  0.06900  Biso   1.000  H 
  H64      1.0000 0.02000  0.90870  0.43100  Biso   1.000  H 
  H65      1.0000 0.95020  0.56870  0.97920  Biso   1.000  H 
  H66      1.0000 0.04980  0.06870  0.52080  Biso   1.000  H 
  H67      1.0000 0.04980  0.43130  0.02080  Biso   1.000  H 
  H68      1.0000 0.95020  0.93130  0.47920  Biso   1.000  H 
  H69      1.0000 0.89860  0.59310  0.88580  Biso   1.000  H 
  H70      1.0000 0.10140  0.09310  0.61420  Biso   1.000  H 
  H71      1.0000 0.10140  0.40690  0.11420  Biso   1.000  H 
  H72      1.0000 0.89860  0.90690  0.38580  Biso   1.000  H 
  C81      1.0000 0.92760  0.30888  0.86380  Biso   1.000  C 
  C82      1.0000 0.07240  0.80888  0.63620  Biso   1.000  C 
  C83      1.0000 0.07240  0.69112  0.13620  Biso   1.000  C 
  C84      1.0000 0.92760  0.19112  0.36380  Biso   1.000  C 
  C85      1.0000 0.03450  0.30346  0.88520  Biso   1.000  C 
  C86      1.0000 0.96550  0.80346  0.61480  Biso   1.000  C 
  C87      1.0000 0.96550  0.69654  0.11480  Biso   1.000  C 
  C88      1.0000 0.03450  0.19654  0.38520  Biso   1.000  C 
  H73      1.0000 0.06210  0.30620  0.84160  Biso   1.000  H 
  H74      1.0000 0.93790  0.80620  0.65840  Biso   1.000  H 
  H75      1.0000 0.93790  0.69380  0.15840  Biso   1.000  H 
  H76      1.0000 0.06210  0.19380  0.34160  Biso   1.000  H 
  C89      1.0000 0.09950  0.29412  0.97000  Biso   1.000  C 
  C90      1.0000 0.90050  0.79412  0.53000  Biso   1.000  C 
  C91      1.0000 0.90050  0.70588  0.03000  Biso   1.000  C 
  C92      1.0000 0.09950  0.20588  0.47000  Biso   1.000  C 
  H77      1.0000 0.17050  0.29090  0.98260  Biso   1.000  H 
  H78      1.0000 0.82950  0.79090  0.51740  Biso   1.000  H 
  H79      1.0000 0.82950  0.70910  0.01740  Biso   1.000  H 
  H80      1.0000 0.17050  0.20910  0.48260  Biso   1.000  H 
  C93      1.0000 0.96190  0.29432  0.01490  Biso   1.000  C 
  C94      1.0000 0.03810  0.79432  0.48510  Biso   1.000  C 
  C95      1.0000 0.03810  0.70568  0.98510  Biso   1.000  C 
  C96      1.0000 0.96190  0.20568  0.51490  Biso   1.000  C 
  H81      1.0000 0.93610  0.29060  0.05950  Biso   1.000  H 
  H82      1.0000 0.06390  0.79060  0.44050  Biso   1.000  H 
  H83      1.0000 0.06390  0.70940  0.94050  Biso   1.000  H 
  H84      1.0000 0.93610  0.20940  0.55950  Biso   1.000  H 
  C97      1.0000 0.89280  0.30440  0.93200  Biso   1.000  C 
  C98      1.0000 0.10720  0.80440  0.56800  Biso   1.000  C 
  C99      1.0000 0.10720  0.69560  0.06800  Biso   1.000  C 
  C100     1.0000 0.89280  0.19560  0.43200  Biso   1.000  C 
  H85      1.0000 0.82250  0.30820  0.92190  Biso   1.000  H 
  H86      1.0000 0.17750  0.80820  0.57810  Biso   1.000  H 
  H87      1.0000 0.17750  0.69180  0.07810  Biso   1.000  H 
  H88      1.0000 0.82250  0.19180  0.42190  Biso   1.000  H 
  H89      1.0000 0.37750  0.24650  0.57180  Biso   1.000  H 
  H90      1.0000 0.62250  0.74650  0.92820  Biso   1.000  H 
  H91      1.0000 0.62250  0.75350  0.42820  Biso   1.000  H 
  H92      1.0000 0.37750  0.25350  0.07180  Biso   1.000  H 
  H93      1.0000 0.51320  0.25860  0.70220  Biso   1.000  H 
  H94      1.0000 0.48680  0.75860  0.79780  Biso   1.000  H 
  H95      1.0000 0.48680  0.74140  0.29780  Biso   1.000  H 
  H96      1.0000 0.51320  0.24140  0.20220  Biso   1.000  H 
  H97      1.0000 0.61140  0.37470  0.59210  Biso   1.000  H 
  H98      1.0000 0.38860  0.87470  0.90790  Biso   1.000  H 
  H99      1.0000 0.38860  0.62530  0.40790  Biso   1.000  H 
  H100     1.0000 0.61140  0.12530  0.09210  Biso   1.000  H 
  H101     1.0000 0.47940  0.35610  0.46330  Biso   1.000  H 
  H102     1.0000 0.52060  0.85610  0.03670  Biso   1.000  H 
  H103     1.0000 0.52060  0.64390  0.53670  Biso   1.000  H 
  H104     1.0000 0.47940  0.14390  0.96330  Biso   1.000  H 
  C101     1.0000 0.42820  0.27120  0.57480  Biso   1.000  C 
  C102     1.0000 0.57180  0.77120  0.92520  Biso   1.000  C 
  C103     1.0000 0.57180  0.72880  0.42520  Biso   1.000  C 
  C104     1.0000 0.42820  0.22880  0.07480  Biso   1.000  C 
  C105     1.0000 0.50940  0.27880  0.65410  Biso   1.000  C 
  C106     1.0000 0.49060  0.77880  0.84590  Biso   1.000  C 
  C107     1.0000 0.49060  0.72120  0.34590  Biso   1.000  C 
  C108     1.0000 0.50940  0.22120  0.15410  Biso   1.000  C 
  C109     1.0000 0.58500  0.31550  0.66150  Biso   1.000  C 
  C110     1.0000 0.41500  0.81550  0.83850  Biso   1.000  C 
  C111     1.0000 0.41500  0.68450  0.33850  Biso   1.000  C 
  C112     1.0000 0.58500  0.18450  0.16150  Biso   1.000  C 
  C113     1.0000 0.56820  0.34658  0.58920  Biso   1.000  C 
  C114     1.0000 0.43180  0.84658  0.91080  Biso   1.000  C 
  C115     1.0000 0.43180  0.65342  0.41080  Biso   1.000  C 
  C116     1.0000 0.56820  0.15342  0.08920  Biso   1.000  C 
  C117     1.0000 0.48710  0.33553  0.51190  Biso   1.000  C 
  C118     1.0000 0.51290  0.83553  0.98810  Biso   1.000  C 
  C119     1.0000 0.51290  0.66447  0.48810  Biso   1.000  C 
  C120     1.0000 0.48710  0.16447  0.01190  Biso   1.000  C 
  C121     1.0000 0.58260  0.42119  0.25100  Biso   1.000  C 
  C122     1.0000 0.41740  0.92119  0.24900  Biso   1.000  C 
  C123     1.0000 0.41740  0.57881  0.74900  Biso   1.000  C 
  C124     1.0000 0.58260  0.07881  0.75100  Biso   1.000  C 
  H105     1.0000 0.64060  0.43480  0.29500  Biso   1.000  H 
  H106     1.0000 0.35940  0.93480  0.20500  Biso   1.000  H 
  H107     1.0000 0.35940  0.56520  0.70500  Biso   1.000  H 
  H108     1.0000 0.64060  0.06520  0.79500  Biso   1.000  H 
  C125     1.0000 0.56250  0.43314  0.16390  Biso   1.000  C 
  C126     1.0000 0.43750  0.93314  0.33610  Biso   1.000  C 
  C127     1.0000 0.43750  0.56686  0.83610  Biso   1.000  C 
  C128     1.0000 0.56250  0.06686  0.66390  Biso   1.000  C 
  C129     1.0000 0.63630  0.51396  0.14150  Biso   1.000  C 
  C130     1.0000 0.36370  0.01396  0.35850  Biso   1.000  C 
  C131     1.0000 0.36370  0.48604  0.85850  Biso   1.000  C 
  C132     1.0000 0.63630  0.98604  0.64150  Biso   1.000  C 
  C133     1.0000 0.56300  0.54401  0.15730  Biso   1.000  C 
  C134     1.0000 0.43700  0.04401  0.34270  Biso   1.000  C 
  C135     1.0000 0.43700  0.45599  0.84270  Biso   1.000  C 
  C136     1.0000 0.56300  0.95599  0.65730  Biso   1.000  C 
  H109     1.0000 0.50900  0.52860  0.16950  Biso   1.000  H 
  H110     1.0000 0.49100  0.02860  0.33050  Biso   1.000  H 
  H111     1.0000 0.49100  0.47140  0.83050  Biso   1.000  H 
  H112     1.0000 0.50900  0.97140  0.66950  Biso   1.000  H 
  C137     1.0000 0.57060  0.59768  0.15470  Biso   1.000  C 
  C138     1.0000 0.42940  0.09768  0.34530  Biso   1.000  C 
  C139     1.0000 0.42940  0.40232  0.84530  Biso   1.000  C 
  C140     1.0000 0.57060  0.90232  0.65470  Biso   1.000  C 
  H113     1.0000 0.52210  0.61820  0.16680  Biso   1.000  H 
  H114     1.0000 0.47790  0.11820  0.33320  Biso   1.000  H 
  H115     1.0000 0.47790  0.38180  0.83320  Biso   1.000  H 
  H116     1.0000 0.52210  0.88180  0.66680  Biso   1.000  H 
  C141     1.0000 0.64880  0.62113  0.13450  Biso   1.000  C 
  C142     1.0000 0.35120  0.12113  0.36550  Biso   1.000  C 
  C143     1.0000 0.35120  0.37887  0.86550  Biso   1.000  C 
  C144     1.0000 0.64880  0.87887  0.63450  Biso   1.000  C 
  C145     1.0000 0.72210  0.59003  0.11980  Biso   1.000  C 
  C146     1.0000 0.27790  0.09003  0.38020  Biso   1.000  C 
  C147     1.0000 0.27790  0.40997  0.88020  Biso   1.000  C 
  C148     1.0000 0.72210  0.90997  0.61980  Biso   1.000  C 
  H117     1.0000 0.77610  0.60520  0.10740  Biso   1.000  H 
  H118     1.0000 0.22390  0.10520  0.39260  Biso   1.000  H 
  H119     1.0000 0.22390  0.39480  0.89260  Biso   1.000  H 
  H120     1.0000 0.77610  0.89480  0.60740  Biso   1.000  H 
  C149     1.0000 0.71610  0.53675  0.12340  Biso   1.000  C 
  C150     1.0000 0.28390  0.03675  0.37660  Biso   1.000  C 
  C151     1.0000 0.28390  0.46325  0.87660  Biso   1.000  C 
  C152     1.0000 0.71610  0.96325  0.62340  Biso   1.000  C 
  H121     1.0000 0.76600  0.51620  0.11360  Biso   1.000  H 
  H122     1.0000 0.23400  0.01620  0.38640  Biso   1.000  H 
  H123     1.0000 0.23400  0.48380  0.88640  Biso   1.000  H 
  H124     1.0000 0.76600  0.98380  0.61360  Biso   1.000  H 
  C153     1.0000 0.65590  0.67895  0.12980  Biso   1.000  C 
  C154     1.0000 0.34410  0.17895  0.37020  Biso   1.000  C 
  C155     1.0000 0.34410  0.32105  0.87020  Biso   1.000  C 
  C156     1.0000 0.65590  0.82105  0.62980  Biso   1.000  C 
  C157     1.0000 0.78450  0.59557  0.36280  Biso   1.000  C 
  C158     1.0000 0.21550  0.09557  0.13720  Biso   1.000  C 
  C159     1.0000 0.21550  0.40443  0.63720  Biso   1.000  C 
  C160     1.0000 0.78450  0.90443  0.86280  Biso   1.000  C 
  H125     1.0000 0.73380  0.61760  0.36790  Biso   1.000  H 
  H126     1.0000 0.26620  0.11760  0.13210  Biso   1.000  H 
  H127     1.0000 0.26620  0.38240  0.63210  Biso   1.000  H 
  H128     1.0000 0.73380  0.88240  0.86790  Biso   1.000  H 
  C161     1.0000 0.86570  0.61610  0.34560  Biso   1.000  C 
  C162     1.0000 0.13430  0.11610  0.15440  Biso   1.000  C 
  C163     1.0000 0.13430  0.38390  0.65440  Biso   1.000  C 
  C164     1.0000 0.86570  0.88390  0.84560  Biso   1.000  C 
  C165     1.0000 0.93880  0.58350  0.33590  Biso   1.000  C 
  C166     1.0000 0.06120  0.08350  0.16410  Biso   1.000  C 
  C167     1.0000 0.06120  0.41650  0.66410  Biso   1.000  C 
  C168     1.0000 0.93880  0.91650  0.83590  Biso   1.000  C 
  H129     1.0000 0.99430  0.59710  0.32350  Biso   1.000  H 
  H130     1.0000 0.00570  0.09710  0.17650  Biso   1.000  H 
  H131     1.0000 0.00570  0.40290  0.67650  Biso   1.000  H 
  H132     1.0000 0.99430  0.90290  0.82350  Biso   1.000  H 
  C169     1.0000 0.87640  0.67470  0.33730  Biso   1.000  C 
  C170     1.0000 0.12360  0.17470  0.16270  Biso   1.000  C 
  C171     1.0000 0.12360  0.32530  0.66270  Biso   1.000  C 
  C172     1.0000 0.87640  0.82530  0.83730  Biso   1.000  C 
  C173     1.0000 0.35640  0.33217  0.22920  Biso   1.000  C 
  C174     1.0000 0.64360  0.83217  0.27080  Biso   1.000  C 
  C175     1.0000 0.64360  0.66783  0.77080  Biso   1.000  C 
  C176     1.0000 0.35640  0.16783  0.72920  Biso   1.000  C 
  C177     1.0000 0.51500  0.38868  0.27120  Biso   1.000  C 
  C178     1.0000 0.48500  0.88868  0.22880  Biso   1.000  C 
  C179     1.0000 0.48500  0.61132  0.72880  Biso   1.000  C 
  C180     1.0000 0.51500  0.11132  0.77120  Biso   1.000  C 
  H133     1.0000 0.52840  0.38010  0.32930  Biso   1.000  H 
  H134     1.0000 0.47160  0.88010  0.17070  Biso   1.000  H 
  H135     1.0000 0.47160  0.61990  0.67070  Biso   1.000  H 
  H136     1.0000 0.52840  0.11990  0.82930  Biso   1.000  H 
  C181     1.0000 0.42770  0.36876  0.20640  Biso   1.000  C 
  C182     1.0000 0.57230  0.86876  0.29360  Biso   1.000  C 
  C183     1.0000 0.57230  0.63124  0.79360  Biso   1.000  C 
  C184     1.0000 0.42770  0.13124  0.70640  Biso   1.000  C 
  C185     1.0000 0.40780  0.38253  0.12070  Biso   1.000  C 
  C186     1.0000 0.59220  0.88253  0.37930  Biso   1.000  C 
  C187     1.0000 0.59220  0.61747  0.87930  Biso   1.000  C 
  C188     1.0000 0.40780  0.11747  0.62070  Biso   1.000  C 
  H137     1.0000 0.34840  0.37010  0.07670  Biso   1.000  H 
  H138     1.0000 0.65160  0.87010  0.42330  Biso   1.000  H 
  H139     1.0000 0.65160  0.62990  0.92330  Biso   1.000  H 
  H140     1.0000 0.34840  0.12990  0.57670  Biso   1.000  H 
  C189     1.0000 0.47560  0.41474  0.09940  Biso   1.000  C 
  C190     1.0000 0.52440  0.91474  0.40060  Biso   1.000  C 
  C191     1.0000 0.52440  0.58526  0.90060  Biso   1.000  C 
  C192     1.0000 0.47560  0.08526  0.59940  Biso   1.000  C 
  H141     1.0000 0.46180  0.42370  0.04140  Biso   1.000  H 
  H142     1.0000 0.53820  0.92370  0.45860  Biso   1.000  H 
  H143     1.0000 0.53820  0.57630  0.95860  Biso   1.000  H 
  H144     1.0000 0.46180  0.07630  0.54140  Biso   1.000  H 
  C193     1.0000 0.11160  0.31994  0.30350  Biso   1.000  C 
  C194     1.0000 0.88840  0.81994  0.19650  Biso   1.000  C 
  C195     1.0000 0.88840  0.68006  0.69650  Biso   1.000  C 
  C196     1.0000 0.11160  0.18006  0.80350  Biso   1.000  C 
  C197     1.0000 0.03600  0.35345  0.32290  Biso   1.000  C 
  C198     1.0000 0.96400  0.85345  0.17710  Biso   1.000  C 
  C199     1.0000 0.96400  0.64655  0.67710  Biso   1.000  C 
  C200     1.0000 0.03600  0.14655  0.82290  Biso   1.000  C 
  C201     1.0000 0.05480  0.36978  0.40790  Biso   1.000  C 
  C202     1.0000 0.94520  0.86978  0.09210  Biso   1.000  C 
  C203     1.0000 0.94520  0.63022  0.59210  Biso   1.000  C 
  C204     1.0000 0.05480  0.13022  0.90790  Biso   1.000  C 
  H145     1.0000 0.11240  0.35710  0.45350  Biso   1.000  H 
  H146     1.0000 0.88760  0.85710  0.04650  Biso   1.000  H 
  H147     1.0000 0.88760  0.64290  0.54650  Biso   1.000  H 
  H148     1.0000 0.11240  0.14290  0.95350  Biso   1.000  H 
  C205     1.0000 0.98940  0.40440  0.42560  Biso   1.000  C 
  C206     1.0000 0.01060  0.90440  0.07440  Biso   1.000  C 
  C207     1.0000 0.01060  0.59560  0.57440  Biso   1.000  C 
  C208     1.0000 0.98940  0.09560  0.92560  Biso   1.000  C 
  H149     1.0000 0.00200  0.41490  0.48270  Biso   1.000  H 
  H150     1.0000 0.99800  0.91490  0.01730  Biso   1.000  H 
  H151     1.0000 0.99800  0.58510  0.51730  Biso   1.000  H 
  H152     1.0000 0.00200  0.08510  0.98270  Biso   1.000  H 
  C209     1.0000 0.90500  0.42323  0.35770  Biso   1.000  C 
  C210     1.0000 0.09500  0.92323  0.14230  Biso   1.000  C 
  C211     1.0000 0.09500  0.57677  0.64230  Biso   1.000  C 
  C212     1.0000 0.90500  0.07677  0.85770  Biso   1.000  C 
  C213     1.0000 0.88210  0.40654  0.27360  Biso   1.000  C 
  C214     1.0000 0.11790  0.90654  0.22640  Biso   1.000  C 
  C215     1.0000 0.11790  0.59346  0.72640  Biso   1.000  C 
  C216     1.0000 0.88210  0.09346  0.77360  Biso   1.000  C 
  H153     1.0000 0.82320  0.41860  0.22870  Biso   1.000  H 
  H154     1.0000 0.17680  0.91860  0.27130  Biso   1.000  H 
  H155     1.0000 0.17680  0.58140  0.77130  Biso   1.000  H 
  H156     1.0000 0.82320  0.08140  0.72870  Biso   1.000  H 
  C217     1.0000 0.94770  0.37169  0.25680  Biso   1.000  C 
  C218     1.0000 0.05230  0.87169  0.24320  Biso   1.000  C 
  C219     1.0000 0.05230  0.62831  0.74320  Biso   1.000  C 
  C220     1.0000 0.94770  0.12831  0.75680  Biso   1.000  C 
  H157     1.0000 0.93240  0.36010  0.19990  Biso   1.000  H 
  H158     1.0000 0.06760  0.86010  0.30010  Biso   1.000  H 
  H159     1.0000 0.06760  0.63990  0.80010  Biso   1.000  H 
  H160     1.0000 0.93240  0.13990  0.69990  Biso   1.000  H 
  C221     1.0000 0.77570  0.54209  0.37290  Biso   1.000  C 
  C222     1.0000 0.22430  0.04209  0.12710  Biso   1.000  C 
  C223     1.0000 0.22430  0.45791  0.62710  Biso   1.000  C 
  C224     1.0000 0.77570  0.95791  0.87290  Biso   1.000  C 
  H161     1.0000 0.72040  0.52860  0.38570  Biso   1.000  H 
  H162     1.0000 0.27960  0.02860  0.11430  Biso   1.000  H 
  H163     1.0000 0.27960  0.47140  0.61430  Biso   1.000  H 
  H164     1.0000 0.72040  0.97140  0.88570  Biso   1.000  H 
  C225     1.0000 0.85000  0.50985  0.36360  Biso   1.000  C 
  C226     1.0000 0.15000  0.00985  0.13640  Biso   1.000  C 
  C227     1.0000 0.15000  0.49015  0.63640  Biso   1.000  C 
  C228     1.0000 0.85000  0.99015  0.86360  Biso   1.000  C 
  C229     1.0000 0.93060  0.52997  0.34440  Biso   1.000  C 
  C230     1.0000 0.06940  0.02997  0.15560  Biso   1.000  C 
  C231     1.0000 0.06940  0.47003  0.65560  Biso   1.000  C 
  C232     1.0000 0.93060  0.97003  0.84440  Biso   1.000  C 
  H165     1.0000 0.98010  0.50800  0.33700  Biso   1.000  H 
  H166     1.0000 0.01990  0.00800  0.16300  Biso   1.000  H 
  H167     1.0000 0.01990  0.49200  0.66300  Biso   1.000  H 
  H168     1.0000 0.98010  0.99200  0.83700  Biso   1.000  H 
  N1       1.0000 0.06360  0.28953  0.03485  Biso   1.000  N 
  N2       1.0000 0.93640  0.78953  0.46515  Biso   1.000  N 
  N3       1.0000 0.93640  0.71047  0.96515  Biso   1.000  N 
  N4       1.0000 0.06360  0.21047  0.53485  Biso   1.000  N 
  N5       1.0000 0.41980  0.29774  0.50240  Biso   1.000  N 
  N6       1.0000 0.58020  0.79774  0.99760  Biso   1.000  N 
  N7       1.0000 0.58020  0.70226  0.49760  Biso   1.000  N 
  N8       1.0000 0.41980  0.20226  0.00240  Biso   1.000  N 
  O1       1.0000 0.95930  0.69337  0.33640  Biso   1.000  O 
  O2       1.0000 0.04070  0.19337  0.16360  Biso   1.000  O 
  O3       1.0000 0.04070  0.30663  0.66360  Biso   1.000  O 
  O4       1.0000 0.95930  0.80663  0.83640  Biso   1.000  O 
  O5       1.0000 0.80100  0.70012  0.33750  Biso   1.000  O 
  O6       1.0000 0.19900  0.20012  0.16250  Biso   1.000  O 
  O7       1.0000 0.19900  0.29988  0.66250  Biso   1.000  O 
  O8       1.0000 0.80100  0.79988  0.83750  Biso   1.000  O 
  O9       1.0000 0.09290  0.30977  0.22496  Biso   1.000  O 
  O10      1.0000 0.90710  0.80977  0.27504  Biso   1.000  O 
  O11      1.0000 0.90710  0.69023  0.77504  Biso   1.000  O 
  O12      1.0000 0.09290  0.19023  0.72496  Biso   1.000  O 
  O13      1.0000 0.19050  0.30553  0.36591  Biso   1.000  O 
  O14      1.0000 0.80950  0.80553  0.13409  Biso   1.000  O 
  O15      1.0000 0.80950  0.69447  0.63409  Biso   1.000  O 
  O16      1.0000 0.19050  0.19447  0.86591  Biso   1.000  O 
  O17      1.0000 0.83790  0.45738  0.37670  Biso   1.000  O 
  O18      1.0000 0.16210  0.95738  0.12330  Biso   1.000  O 
  O19      1.0000 0.16210  0.54262  0.62330  Biso   1.000  O 
  O20      1.0000 0.83790  0.04262  0.87670  Biso   1.000  O 
  O21      1.0000 0.59690  0.70723  0.15190  Biso   1.000  O 
  O22      1.0000 0.40310  0.20723  0.34810  Biso   1.000  O 
  O23      1.0000 0.40310  0.29277  0.84810  Biso   1.000  O 
  O24      1.0000 0.59690  0.79277  0.65190  Biso   1.000  O 
  O25      1.0000 0.72040  0.69859  0.10320  Biso   1.000  O 
  O26      1.0000 0.27960  0.19859  0.39680  Biso   1.000  O 
  O27      1.0000 0.27960  0.30141  0.89680  Biso   1.000  O 
  O28      1.0000 0.72040  0.80141  0.60320  Biso   1.000  O 
  O29      1.0000 0.63630  0.46037  0.14140  Biso   1.000  O 
  O30      1.0000 0.36370  0.96037  0.35860  Biso   1.000  O 
  O31      1.0000 0.36370  0.53963  0.85860  Biso   1.000  O 
  O32      1.0000 0.63630  0.03963  0.64140  Biso   1.000  O 
  O33      1.0000 0.37310  0.32497  0.30872  Biso   1.000  O 
  O34      1.0000 0.62690  0.82497  0.19128  Biso   1.000  O 
  O35      1.0000 0.62690  0.67503  0.69128  Biso   1.000  O 
  O36      1.0000 0.37310  0.17503  0.80872  Biso   1.000  O 
  O37      1.0000 0.28490  0.31199  0.16701  Biso   1.000  O 
  O38      1.0000 0.71510  0.81199  0.33299  Biso   1.000  O 
  O39      1.0000 0.71510  0.68801  0.83299  Biso   1.000  O 
  O40      1.0000 0.28490  0.18801  0.66701  Biso   1.000  O 
  O41      1.0000 0.64720  0.28020  0.34860  Biso   1.000  O 
  O42      1.0000 0.35280  0.78020  0.15140  Biso   1.000  O 
  O43      1.0000 0.35280  0.71980  0.65140  Biso   1.000  O 
  O44      1.0000 0.64720  0.21980  0.84860  Biso   1.000  O 
  O45      1.0000 0.02860  0.50760  0.85860  Biso   1.000  O 
  O46      1.0000 0.97140  0.00760  0.64140  Biso   1.000  O 
  O47      1.0000 0.97140  0.49240  0.14140  Biso   1.000  O 
  O48      1.0000 0.02860  0.99240  0.35860  Biso   1.000  O 
  Zn1      1.0000 0.16059  0.27139  0.15894  Biso   1.000  Zn
  Zn2      1.0000 0.83941  0.77139  0.34106  Biso   1.000  Zn
  Zn3      1.0000 0.83941  0.72861  0.84106  Biso   1.000  Zn
  Zn4      1.0000 0.16059  0.22861  0.65894  Biso   1.000  Zn
  Zn5      1.0000 0.32643  0.27405  0.37871  Biso   1.000  Zn
  Zn6      1.0000 0.67357  0.77405  0.12129  Biso   1.000  Zn
  Zn7      1.0000 0.67357  0.72595  0.62129  Biso   1.000  Zn
  Zn8      1.0000 0.32643  0.22595  0.87871  Biso   1.000  Zn
