data_image0
_cell_length_a       14.246
_cell_length_b       25.321
_cell_length_c       16.005
_cell_angle_alpha    90
_cell_angle_beta     111.883
_cell_angle_gamma    90

_symmetry_space_group_name_H-M    "P 1"
_symmetry_int_tables_number       1

loop_
  _symmetry_equiv_pos_as_xyz
  'x, y, z'

loop_
  _atom_site_label
  _atom_site_occupancy
  _atom_site_fract_x
  _atom_site_fract_y
  _atom_site_fract_z
  _atom_site_thermal_displace_type
  _atom_site_B_iso_or_equiv
  _atom_site_type_symbol
  O1       1.0000 0.80690  0.29810  0.38770  Biso   1.000  O 
  O2       1.0000 0.19310  0.79810  0.11230  Biso   1.000  O 
  O3       1.0000 0.19310  0.70190  0.61230  Biso   1.000  O 
  O4       1.0000 0.80690  0.20190  0.88770  Biso   1.000  O 
  C1       1.0000 0.87850  0.32200  0.37220  Biso   1.000  C 
  C2       1.0000 0.12150  0.82200  0.12780  Biso   1.000  C 
  C3       1.0000 0.12150  0.67800  0.62780  Biso   1.000  C 
  C4       1.0000 0.87850  0.17800  0.87220  Biso   1.000  C 
  O5       1.0000 0.72950  0.31094  0.15750  Biso   1.000  O 
  O6       1.0000 0.27050  0.81094  0.34250  Biso   1.000  O 
  O7       1.0000 0.27050  0.68906  0.84250  Biso   1.000  O 
  O8       1.0000 0.72950  0.18906  0.65750  Biso   1.000  O 
  O9       1.0000 0.58370  0.31380  0.17290  Biso   1.000  O 
  O10      1.0000 0.41630  0.81380  0.32710  Biso   1.000  O 
  O11      1.0000 0.41630  0.68620  0.82710  Biso   1.000  O 
  O12      1.0000 0.58370  0.18620  0.67290  Biso   1.000  O 
  C5       1.0000 0.65590  0.33630  0.16330  Biso   1.000  C 
  C6       1.0000 0.34410  0.83630  0.33670  Biso   1.000  C 
  C7       1.0000 0.34410  0.66370  0.83670  Biso   1.000  C 
  C8       1.0000 0.65590  0.16370  0.66330  Biso   1.000  C 
  N1       1.0000 0.05940  0.69633  0.99090  Biso   1.000  N 
  N2       1.0000 0.94060  0.19633  0.50910  Biso   1.000  N 
  N3       1.0000 0.94060  0.30367  0.00910  Biso   1.000  N 
  N4       1.0000 0.05940  0.80367  0.49090  Biso   1.000  N 
  C9       1.0000 0.99160  0.66010  0.99010  Biso   1.000  C 
  C10      1.0000 0.00840  0.16010  0.50990  Biso   1.000  C 
  C11      1.0000 0.00840  0.33990  0.00990  Biso   1.000  C 
  C12      1.0000 0.99160  0.83990  0.49010  Biso   1.000  C 
  C13      1.0000 0.04530  0.72110  0.91420  Biso   1.000  C 
  C14      1.0000 0.95470  0.22110  0.58580  Biso   1.000  C 
  C15      1.0000 0.95470  0.27890  0.08580  Biso   1.000  C 
  C16      1.0000 0.04530  0.77890  0.41420  Biso   1.000  C 
  C17      1.0000 0.90380  0.65120  0.91620  Biso   1.000  C 
  C18      1.0000 0.09620  0.15120  0.58380  Biso   1.000  C 
  C19      1.0000 0.09620  0.34880  0.08380  Biso   1.000  C 
  C20      1.0000 0.90380  0.84880  0.41620  Biso   1.000  C 
  C21      1.0000 0.95970  0.71410  0.83740  Biso   1.000  C 
  C22      1.0000 0.04030  0.21410  0.66260  Biso   1.000  C 
  C23      1.0000 0.04030  0.28590  0.16260  Biso   1.000  C 
  C24      1.0000 0.95970  0.78590  0.33740  Biso   1.000  C 
  C25      1.0000 0.88230  0.68140  0.83930  Biso   1.000  C 
  C26      1.0000 0.11770  0.18140  0.66070  Biso   1.000  C 
  C27      1.0000 0.11770  0.31860  0.16070  Biso   1.000  C 
  C28      1.0000 0.88230  0.81860  0.33930  Biso   1.000  C 
  Zn1      1.0000 0.31982  0.73782  0.34027  Biso   1.000  Zn
  Zn2      1.0000 0.68018  0.23782  0.15973  Biso   1.000  Zn
  Zn3      1.0000 0.68018  0.26218  0.65973  Biso   1.000  Zn
  Zn4      1.0000 0.31982  0.76218  0.84027  Biso   1.000  Zn
  Zn5      1.0000 0.15841  0.72343  0.11320  Biso   1.000  Zn
  Zn6      1.0000 0.84159  0.22343  0.38680  Biso   1.000  Zn
  Zn7      1.0000 0.84159  0.27657  0.88680  Biso   1.000  Zn
  Zn8      1.0000 0.15841  0.77657  0.61320  Biso   1.000  Zn
  C29      1.0000 0.56640  0.54860  0.69820  Biso   1.000  C 
  C30      1.0000 0.43360  0.04860  0.80180  Biso   1.000  C 
  C31      1.0000 0.43360  0.45140  0.30180  Biso   1.000  C 
  C32      1.0000 0.56640  0.95140  0.19820  Biso   1.000  C 
  H1       1.0000 0.62280  0.53530  0.74830  Biso   1.000  H 
  H2       1.0000 0.37720  0.03530  0.75170  Biso   1.000  H 
  H3       1.0000 0.37720  0.46470  0.25170  Biso   1.000  H 
  H4       1.0000 0.62280  0.96470  0.24830  Biso   1.000  H 
  H5       1.0000 0.52040  0.52020  0.67100  Biso   1.000  H 
  H6       1.0000 0.47960  0.02020  0.82900  Biso   1.000  H 
  H7       1.0000 0.47960  0.47980  0.32900  Biso   1.000  H 
  H8       1.0000 0.52040  0.97980  0.17100  Biso   1.000  H 
  H9       1.0000 0.53210  0.57520  0.71890  Biso   1.000  H 
  H10      1.0000 0.46790  0.07520  0.78110  Biso   1.000  H 
  H11      1.0000 0.46790  0.42480  0.28110  Biso   1.000  H 
  H12      1.0000 0.53210  0.92480  0.21890  Biso   1.000  H 
  C33      1.0000 0.60740  0.57460  0.62290  Biso   1.000  C 
  C34      1.0000 0.39260  0.07460  0.87710  Biso   1.000  C 
  C35      1.0000 0.39260  0.42540  0.37710  Biso   1.000  C 
  C36      1.0000 0.60740  0.92540  0.12290  Biso   1.000  C 
  C37      1.0000 0.59920  0.55710  0.53320  Biso   1.000  C 
  C38      1.0000 0.40080  0.05710  0.96680  Biso   1.000  C 
  C39      1.0000 0.40080  0.44290  0.46680  Biso   1.000  C 
  C40      1.0000 0.59920  0.94290  0.03320  Biso   1.000  C 
  H13      1.0000 0.53930  0.54010  0.49930  Biso   1.000  H 
  H14      1.0000 0.46070  0.04010  0.00070  Biso   1.000  H 
  H15      1.0000 0.46070  0.45990  0.50070  Biso   1.000  H 
  H16      1.0000 0.53930  0.95990  0.99930  Biso   1.000  H 
  C41      1.0000 0.66720  0.56250  0.49340  Biso   1.000  C 
  C42      1.0000 0.33280  0.06250  0.00660  Biso   1.000  C 
  C43      1.0000 0.33280  0.43750  0.50660  Biso   1.000  C 
  C44      1.0000 0.66720  0.93750  0.99340  Biso   1.000  C 
  H17      1.0000 0.65630  0.54780  0.43730  Biso   1.000  H 
  H18      1.0000 0.34370  0.04780  0.06270  Biso   1.000  H 
  H19      1.0000 0.34370  0.45220  0.56270  Biso   1.000  H 
  H20      1.0000 0.65630  0.95220  0.93730  Biso   1.000  H 
  C45      1.0000 0.75200  0.59020  0.53930  Biso   1.000  C 
  C46      1.0000 0.24800  0.09020  0.96070  Biso   1.000  C 
  C47      1.0000 0.24800  0.40980  0.46070  Biso   1.000  C 
  C48      1.0000 0.75200  0.90980  0.03930  Biso   1.000  C 
  H21      1.0000 0.80290  0.59180  0.51620  Biso   1.000  H 
  H22      1.0000 0.19710  0.09180  0.98380  Biso   1.000  H 
  H23      1.0000 0.19710  0.40820  0.48380  Biso   1.000  H 
  H24      1.0000 0.80290  0.90820  0.01620  Biso   1.000  H 
  C49      1.0000 0.76580  0.61590  0.61800  Biso   1.000  C 
  C50      1.0000 0.23420  0.11590  0.88200  Biso   1.000  C 
  C51      1.0000 0.23420  0.38410  0.38200  Biso   1.000  C 
  C52      1.0000 0.76580  0.88410  0.11800  Biso   1.000  C 
  H25      1.0000 0.80750  0.64520  0.63720  Biso   1.000  H 
  H26      1.0000 0.19250  0.14520  0.86280  Biso   1.000  H 
  H27      1.0000 0.19250  0.35480  0.36280  Biso   1.000  H 
  H28      1.0000 0.80750  0.85480  0.13720  Biso   1.000  H 
  C53      1.0000 0.70530  0.59170  0.67350  Biso   1.000  C 
  C54      1.0000 0.29470  0.09170  0.82650  Biso   1.000  C 
  C55      1.0000 0.29470  0.40830  0.32650  Biso   1.000  C 
  C56      1.0000 0.70530  0.90830  0.17350  Biso   1.000  C 
  C57      1.0000 0.70450  0.63680  0.74160  Biso   1.000  C 
  C58      1.0000 0.29550  0.13680  0.75840  Biso   1.000  C 
  C59      1.0000 0.29550  0.36320  0.25840  Biso   1.000  C 
  C60      1.0000 0.70450  0.86320  0.24160  Biso   1.000  C 
  H29      1.0000 0.71940  0.61840  0.79900  Biso   1.000  H 
  H30      1.0000 0.28060  0.11840  0.70100  Biso   1.000  H 
  H31      1.0000 0.28060  0.38160  0.20100  Biso   1.000  H 
  H32      1.0000 0.71940  0.88160  0.29900  Biso   1.000  H 
  C61      1.0000 0.61470  0.67560  0.73490  Biso   1.000  C 
  C62      1.0000 0.38530  0.17560  0.76510  Biso   1.000  C 
  C63      1.0000 0.38530  0.32440  0.26510  Biso   1.000  C 
  C64      1.0000 0.61470  0.82440  0.23490  Biso   1.000  C 
  H33      1.0000 0.57600  0.66270  0.77010  Biso   1.000  H 
  H34      1.0000 0.42400  0.16270  0.72990  Biso   1.000  H 
  H35      1.0000 0.42400  0.33730  0.22990  Biso   1.000  H 
  H36      1.0000 0.57600  0.83730  0.27010  Biso   1.000  H 
  C65      1.0000 0.69500  0.71660  0.78820  Biso   1.000  C 
  C66      1.0000 0.30500  0.21660  0.71180  Biso   1.000  C 
  C67      1.0000 0.30500  0.28340  0.21180  Biso   1.000  C 
  C68      1.0000 0.69500  0.78340  0.28820  Biso   1.000  C 
  H37      1.0000 0.68230  0.75130  0.75880  Biso   1.000  H 
  H38      1.0000 0.31770  0.25130  0.74120  Biso   1.000  H 
  H39      1.0000 0.31770  0.24870  0.24120  Biso   1.000  H 
  H40      1.0000 0.68230  0.74870  0.25880  Biso   1.000  H 
  C69      1.0000 0.77900  0.68430  0.76580  Biso   1.000  C 
  C70      1.0000 0.22100  0.18430  0.73420  Biso   1.000  C 
  C71      1.0000 0.22100  0.31570  0.23420  Biso   1.000  C 
  C72      1.0000 0.77900  0.81570  0.26580  Biso   1.000  C 
  H41      1.0000 0.78470  0.69840  0.71090  Biso   1.000  H 
  H42      1.0000 0.21530  0.19840  0.78910  Biso   1.000  H 
  H43      1.0000 0.21530  0.30160  0.28910  Biso   1.000  H 
  H44      1.0000 0.78470  0.80160  0.21090  Biso   1.000  H 
  C73      1.0000 0.71810  0.72100  0.88800  Biso   1.000  C 
  C74      1.0000 0.28190  0.22100  0.61200  Biso   1.000  C 
  C75      1.0000 0.28190  0.27900  0.11200  Biso   1.000  C 
  C76      1.0000 0.71810  0.77900  0.38800  Biso   1.000  C 
  C77      1.0000 0.68930  0.68200  0.93420  Biso   1.000  C 
  C78      1.0000 0.31070  0.18200  0.56580  Biso   1.000  C 
  C79      1.0000 0.31070  0.31800  0.06580  Biso   1.000  C 
  C80      1.0000 0.68930  0.81800  0.43420  Biso   1.000  C 
  H45      1.0000 0.64490  0.65580  0.90160  Biso   1.000  H 
  H46      1.0000 0.35510  0.15580  0.59840  Biso   1.000  H 
  H47      1.0000 0.35510  0.34420  0.09840  Biso   1.000  H 
  H48      1.0000 0.64490  0.84420  0.40160  Biso   1.000  H 
  C81      1.0000 0.72450  0.68070  0.02750  Biso   1.000  C 
  C82      1.0000 0.27550  0.18070  0.47250  Biso   1.000  C 
  C83      1.0000 0.27550  0.31930  0.97250  Biso   1.000  C 
  C84      1.0000 0.72450  0.81930  0.52750  Biso   1.000  C 
  H49      1.0000 0.70330  0.65430  0.05690  Biso   1.000  H 
  H50      1.0000 0.29670  0.15430  0.44310  Biso   1.000  H 
  H51      1.0000 0.29670  0.34570  0.94310  Biso   1.000  H 
  H52      1.0000 0.70330  0.84570  0.55690  Biso   1.000  H 
  C85      1.0000 0.79090  0.71870  0.07580  Biso   1.000  C 
  C86      1.0000 0.20910  0.21870  0.42420  Biso   1.000  C 
  C87      1.0000 0.20910  0.28130  0.92420  Biso   1.000  C 
  C88      1.0000 0.79090  0.78130  0.57580  Biso   1.000  C 
  H53      1.0000 0.81770  0.71700  0.13830  Biso   1.000  H 
  H54      1.0000 0.18230  0.21700  0.36170  Biso   1.000  H 
  H55      1.0000 0.18230  0.28300  0.86170  Biso   1.000  H 
  H56      1.0000 0.81770  0.78300  0.63830  Biso   1.000  H 
  C89      1.0000 0.81780  0.75880  0.03280  Biso   1.000  C 
  C90      1.0000 0.18220  0.25880  0.46720  Biso   1.000  C 
  C91      1.0000 0.18220  0.24120  0.96720  Biso   1.000  C 
  C92      1.0000 0.81780  0.74120  0.53280  Biso   1.000  C 
  H57      1.0000 0.86120  0.78490  0.06680  Biso   1.000  H 
  H58      1.0000 0.13880  0.28490  0.43320  Biso   1.000  H 
  H59      1.0000 0.13880  0.21510  0.93320  Biso   1.000  H 
  H60      1.0000 0.86120  0.71510  0.56680  Biso   1.000  H 
  C93      1.0000 0.78200  0.76180  0.93880  Biso   1.000  C 
  C94      1.0000 0.21800  0.26180  0.56120  Biso   1.000  C 
  C95      1.0000 0.21800  0.23820  0.06120  Biso   1.000  C 
  C96      1.0000 0.78200  0.73820  0.43880  Biso   1.000  C 
  C97      1.0000 0.81370  0.80770  0.89500  Biso   1.000  C 
  C98      1.0000 0.18630  0.30770  0.60500  Biso   1.000  C 
  C99      1.0000 0.18630  0.19230  0.10500  Biso   1.000  C 
  C100     1.0000 0.81370  0.69230  0.39500  Biso   1.000  C 
  H61      1.0000 0.75920  0.83260  0.87330  Biso   1.000  H 
  H62      1.0000 0.24080  0.33260  0.62670  Biso   1.000  H 
  H63      1.0000 0.24080  0.16740  0.12670  Biso   1.000  H 
  H64      1.0000 0.75920  0.66740  0.37330  Biso   1.000  H 
  H65      1.0000 0.83030  0.79510  0.84560  Biso   1.000  H 
  H66      1.0000 0.16970  0.29510  0.65440  Biso   1.000  H 
  H67      1.0000 0.16970  0.20490  0.15440  Biso   1.000  H 
  H68      1.0000 0.83030  0.70490  0.34560  Biso   1.000  H 
  H69      1.0000 0.87190  0.82460  0.93840  Biso   1.000  H 
  H70      1.0000 0.12810  0.32460  0.56160  Biso   1.000  H 
  H71      1.0000 0.12810  0.17540  0.06160  Biso   1.000  H 
  H72      1.0000 0.87190  0.67540  0.43840  Biso   1.000  H 
  C101     1.0000 0.38080  0.70870  0.53380  Biso   1.000  C 
  C102     1.0000 0.61920  0.20870  0.96620  Biso   1.000  C 
  C103     1.0000 0.61920  0.29130  0.46620  Biso   1.000  C 
  C104     1.0000 0.38080  0.79130  0.03380  Biso   1.000  C 
  H73      1.0000 0.31150  0.70970  0.52060  Biso   1.000  H 
  H74      1.0000 0.68850  0.20970  0.97940  Biso   1.000  H 
  H75      1.0000 0.68850  0.29030  0.47940  Biso   1.000  H 
  H76      1.0000 0.31150  0.79030  0.02060  Biso   1.000  H 
  C105     1.0000 0.44330  0.69510  0.62020  Biso   1.000  C 
  C106     1.0000 0.55670  0.19510  0.87980  Biso   1.000  C 
  C107     1.0000 0.55670  0.30490  0.37980  Biso   1.000  C 
  C108     1.0000 0.44330  0.80490  0.12020  Biso   1.000  C 
  H77      1.0000 0.41590  0.68780  0.66340  Biso   1.000  H 
  H78      1.0000 0.58410  0.18780  0.83660  Biso   1.000  H 
  H79      1.0000 0.58410  0.31220  0.33660  Biso   1.000  H 
  H80      1.0000 0.41590  0.81220  0.16340  Biso   1.000  H 
  C109     1.0000 0.54650  0.69230  0.64210  Biso   1.000  C 
  C110     1.0000 0.45350  0.19230  0.85790  Biso   1.000  C 
  C111     1.0000 0.45350  0.30770  0.35790  Biso   1.000  C 
  C112     1.0000 0.54650  0.80770  0.14210  Biso   1.000  C 
  C113     1.0000 0.58120  0.70630  0.57450  Biso   1.000  C 
  C114     1.0000 0.41880  0.20630  0.92550  Biso   1.000  C 
  C115     1.0000 0.41880  0.29370  0.42550  Biso   1.000  C 
  C116     1.0000 0.58120  0.79370  0.07450  Biso   1.000  C 
  H81      1.0000 0.65020  0.70640  0.58620  Biso   1.000  H 
  H82      1.0000 0.34980  0.20640  0.91380  Biso   1.000  H 
  H83      1.0000 0.34980  0.29360  0.41380  Biso   1.000  H 
  H84      1.0000 0.65020  0.79360  0.08620  Biso   1.000  H 
  C117     1.0000 0.51310  0.72000  0.48980  Biso   1.000  C 
  C118     1.0000 0.48690  0.22000  0.01020  Biso   1.000  C 
  C119     1.0000 0.48690  0.28000  0.51020  Biso   1.000  C 
  C120     1.0000 0.51310  0.78000  0.98980  Biso   1.000  C 
  H85      1.0000 0.53820  0.72920  0.44580  Biso   1.000  H 
  H86      1.0000 0.46180  0.22920  0.05420  Biso   1.000  H 
  H87      1.0000 0.46180  0.27080  0.55420  Biso   1.000  H 
  H88      1.0000 0.53820  0.77080  0.94580  Biso   1.000  H 
  H89      1.0000 0.00380  0.64010  0.04190  Biso   1.000  H 
  H90      1.0000 0.99620  0.14010  0.45810  Biso   1.000  H 
  H91      1.0000 0.99620  0.35990  0.95810  Biso   1.000  H 
  H92      1.0000 0.00380  0.85990  0.54190  Biso   1.000  H 
  H93      1.0000 0.85920  0.62510  0.91860  Biso   1.000  H 
  H94      1.0000 0.14080  0.12510  0.58140  Biso   1.000  H 
  H95      1.0000 0.14080  0.37490  0.08140  Biso   1.000  H 
  H96      1.0000 0.85920  0.87490  0.41860  Biso   1.000  H 
  H97      1.0000 0.95390  0.73160  0.78470  Biso   1.000  H 
  H98      1.0000 0.04610  0.23160  0.71530  Biso   1.000  H 
  H99      1.0000 0.04610  0.26840  0.21530  Biso   1.000  H 
  H100     1.0000 0.95390  0.76840  0.28470  Biso   1.000  H 
  H101     1.0000 0.09510  0.74430  0.91230  Biso   1.000  H 
  H102     1.0000 0.90490  0.24430  0.58770  Biso   1.000  H 
  H103     1.0000 0.90490  0.25570  0.08770  Biso   1.000  H 
  H104     1.0000 0.09510  0.75570  0.41230  Biso   1.000  H 
  C121     1.0000 0.12920  0.67560  0.27440  Biso   1.000  C 
  C122     1.0000 0.87080  0.17560  0.22560  Biso   1.000  C 
  C123     1.0000 0.87080  0.32440  0.72560  Biso   1.000  C 
  C124     1.0000 0.12920  0.82440  0.77440  Biso   1.000  C 
  C125     1.0000 0.05680  0.64080  0.29760  Biso   1.000  C 
  C126     1.0000 0.94320  0.14080  0.20240  Biso   1.000  C 
  C127     1.0000 0.94320  0.35920  0.70240  Biso   1.000  C 
  C128     1.0000 0.05680  0.85920  0.79760  Biso   1.000  C 
  C129     1.0000 0.96540  0.62570  0.23140  Biso   1.000  C 
  C130     1.0000 0.03460  0.12570  0.26860  Biso   1.000  C 
  C131     1.0000 0.03460  0.37430  0.76860  Biso   1.000  C 
  C132     1.0000 0.96540  0.87430  0.73140  Biso   1.000  C 
  H105     1.0000 0.94890  0.63760  0.17260  Biso   1.000  H 
  H106     1.0000 0.05110  0.13760  0.32740  Biso   1.000  H 
  H107     1.0000 0.05110  0.36240  0.82740  Biso   1.000  H 
  H108     1.0000 0.94890  0.86240  0.67260  Biso   1.000  H 
  C133     1.0000 0.89880  0.59330  0.25150  Biso   1.000  C 
  C134     1.0000 0.10120  0.09330  0.24850  Biso   1.000  C 
  C135     1.0000 0.10120  0.40670  0.74850  Biso   1.000  C 
  C136     1.0000 0.89880  0.90670  0.75150  Biso   1.000  C 
  H109     1.0000 0.83740  0.58380  0.20710  Biso   1.000  H 
  H110     1.0000 0.16260  0.08380  0.29290  Biso   1.000  H 
  H111     1.0000 0.16260  0.41620  0.79290  Biso   1.000  H 
  H112     1.0000 0.83740  0.91620  0.70710  Biso   1.000  H 
  C137     1.0000 0.92450  0.57540  0.33770  Biso   1.000  C 
  C138     1.0000 0.07550  0.07540  0.16230  Biso   1.000  C 
  C139     1.0000 0.07550  0.42460  0.66230  Biso   1.000  C 
  C140     1.0000 0.92450  0.92460  0.83770  Biso   1.000  C 
  C141     1.0000 0.01350  0.58990  0.40420  Biso   1.000  C 
  C142     1.0000 0.98650  0.08990  0.09580  Biso   1.000  C 
  C143     1.0000 0.98650  0.41010  0.59580  Biso   1.000  C 
  C144     1.0000 0.01350  0.91010  0.90420  Biso   1.000  C 
  H113     1.0000 0.02990  0.57730  0.46250  Biso   1.000  H 
  H114     1.0000 0.97010  0.07730  0.03750  Biso   1.000  H 
  H115     1.0000 0.97010  0.42270  0.53750  Biso   1.000  H 
  H116     1.0000 0.02990  0.92270  0.96250  Biso   1.000  H 
  C145     1.0000 0.07890  0.62330  0.38450  Biso   1.000  C 
  C146     1.0000 0.92110  0.12330  0.11550  Biso   1.000  C 
  C147     1.0000 0.92110  0.37670  0.61550  Biso   1.000  C 
  C148     1.0000 0.07890  0.87670  0.88450  Biso   1.000  C 
  H117     1.0000 0.13850  0.63410  0.43010  Biso   1.000  H 
  H118     1.0000 0.86150  0.13410  0.06990  Biso   1.000  H 
  H119     1.0000 0.86150  0.36590  0.56990  Biso   1.000  H 
  H120     1.0000 0.13850  0.86590  0.93010  Biso   1.000  H 
  C149     1.0000 0.86500  0.49030  0.36040  Biso   1.000  C 
  C150     1.0000 0.13500  0.99030  0.13960  Biso   1.000  C 
  C151     1.0000 0.13500  0.50970  0.63960  Biso   1.000  C 
  C152     1.0000 0.86500  0.00970  0.86040  Biso   1.000  C 
  C153     1.0000 0.78770  0.46230  0.37240  Biso   1.000  C 
  C154     1.0000 0.21230  0.96230  0.12760  Biso   1.000  C 
  C155     1.0000 0.21230  0.53770  0.62760  Biso   1.000  C 
  C156     1.0000 0.78770  0.03770  0.87240  Biso   1.000  C 
  H121     1.0000 0.73350  0.48010  0.37870  Biso   1.000  H 
  H122     1.0000 0.26650  0.98010  0.12130  Biso   1.000  H 
  H123     1.0000 0.26650  0.51990  0.62130  Biso   1.000  H 
  H124     1.0000 0.73350  0.01990  0.87870  Biso   1.000  H 
  C157     1.0000 0.79140  0.40770  0.37510  Biso   1.000  C 
  C158     1.0000 0.20860  0.90770  0.12490  Biso   1.000  C 
  C159     1.0000 0.20860  0.59230  0.62490  Biso   1.000  C 
  C160     1.0000 0.79140  0.09230  0.87510  Biso   1.000  C 
  H125     1.0000 0.73920  0.38880  0.38290  Biso   1.000  H 
  H126     1.0000 0.26080  0.88880  0.11710  Biso   1.000  H 
  H127     1.0000 0.26080  0.61120  0.61710  Biso   1.000  H 
  H128     1.0000 0.73920  0.11120  0.88290  Biso   1.000  H 
  C161     1.0000 0.87170  0.38080  0.36630  Biso   1.000  C 
  C162     1.0000 0.12830  0.88080  0.13370  Biso   1.000  C 
  C163     1.0000 0.12830  0.61920  0.63370  Biso   1.000  C 
  C164     1.0000 0.87170  0.11920  0.86630  Biso   1.000  C 
  C165     1.0000 0.94720  0.40970  0.35370  Biso   1.000  C 
  C166     1.0000 0.05280  0.90970  0.14630  Biso   1.000  C 
  C167     1.0000 0.05280  0.59030  0.64630  Biso   1.000  C 
  C168     1.0000 0.94720  0.09030  0.85370  Biso   1.000  C 
  H129     1.0000 0.00140  0.39200  0.34740  Biso   1.000  H 
  H130     1.0000 0.99860  0.89200  0.15260  Biso   1.000  H 
  H131     1.0000 0.99860  0.60800  0.65260  Biso   1.000  H 
  H132     1.0000 0.00140  0.10800  0.84740  Biso   1.000  H 
  C169     1.0000 0.94470  0.46460  0.35020  Biso   1.000  C 
  C170     1.0000 0.05530  0.96460  0.14980  Biso   1.000  C 
  C171     1.0000 0.05530  0.53540  0.64980  Biso   1.000  C 
  C172     1.0000 0.94470  0.03540  0.85020  Biso   1.000  C 
  H133     1.0000 0.99610  0.48340  0.34120  Biso   1.000  H 
  H134     1.0000 0.00390  0.98340  0.15880  Biso   1.000  H 
  H135     1.0000 0.00390  0.51660  0.65880  Biso   1.000  H 
  H136     1.0000 0.99610  0.01660  0.84120  Biso   1.000  H 
  C173     1.0000 0.36850  0.68330  0.19440  Biso   1.000  C 
  C174     1.0000 0.63150  0.18330  0.30560  Biso   1.000  C 
  C175     1.0000 0.63150  0.31670  0.80560  Biso   1.000  C 
  C176     1.0000 0.36850  0.81670  0.69440  Biso   1.000  C 
  C177     1.0000 0.44930  0.65220  0.17710  Biso   1.000  C 
  C178     1.0000 0.55070  0.15220  0.32290  Biso   1.000  C 
  C179     1.0000 0.55070  0.34780  0.82290  Biso   1.000  C 
  C180     1.0000 0.44930  0.84780  0.67710  Biso   1.000  C 
  C181     1.0000 0.43800  0.64020  0.09070  Biso   1.000  C 
  C182     1.0000 0.56200  0.14020  0.40930  Biso   1.000  C 
  C183     1.0000 0.56200  0.35980  0.90930  Biso   1.000  C 
  C184     1.0000 0.43800  0.85980  0.59070  Biso   1.000  C 
  H137     1.0000 0.38280  0.65340  0.04290  Biso   1.000  H 
  H138     1.0000 0.61720  0.15340  0.45710  Biso   1.000  H 
  H139     1.0000 0.61720  0.34660  0.95710  Biso   1.000  H 
  H140     1.0000 0.38280  0.84660  0.54290  Biso   1.000  H 
  C185     1.0000 0.50850  0.60850  0.07370  Biso   1.000  C 
  C186     1.0000 0.49150  0.10850  0.42630  Biso   1.000  C 
  C187     1.0000 0.49150  0.39150  0.92630  Biso   1.000  C 
  C188     1.0000 0.50850  0.89150  0.57370  Biso   1.000  C 
  H141     1.0000 0.50110  0.60050  0.01480  Biso   1.000  H 
  H142     1.0000 0.49890  0.10050  0.48520  Biso   1.000  H 
  H143     1.0000 0.49890  0.39950  0.98520  Biso   1.000  H 
  H144     1.0000 0.50110  0.89950  0.51480  Biso   1.000  H 
  C189     1.0000 0.58750  0.58940  0.14340  Biso   1.000  C 
  C190     1.0000 0.41250  0.08940  0.35660  Biso   1.000  C 
  C191     1.0000 0.41250  0.41060  0.85660  Biso   1.000  C 
  C192     1.0000 0.58750  0.91060  0.64340  Biso   1.000  C 
  C193     1.0000 0.60290  0.60180  0.23120  Biso   1.000  C 
  C194     1.0000 0.39710  0.10180  0.26880  Biso   1.000  C 
  C195     1.0000 0.39710  0.39820  0.76880  Biso   1.000  C 
  C196     1.0000 0.60290  0.89820  0.73120  Biso   1.000  C 
  H145     1.0000 0.65890  0.58900  0.27860  Biso   1.000  H 
  H146     1.0000 0.34110  0.08900  0.22140  Biso   1.000  H 
  H147     1.0000 0.34110  0.41100  0.72140  Biso   1.000  H 
  H148     1.0000 0.65890  0.91100  0.77860  Biso   1.000  H 
  C197     1.0000 0.53310  0.63390  0.24700  Biso   1.000  C 
  C198     1.0000 0.46690  0.13390  0.25300  Biso   1.000  C 
  C199     1.0000 0.46690  0.36610  0.75300  Biso   1.000  C 
  C200     1.0000 0.53310  0.86610  0.74700  Biso   1.000  C 
  H149     1.0000 0.54270  0.64320  0.30580  Biso   1.000  H 
  H150     1.0000 0.45730  0.14320  0.19420  Biso   1.000  H 
  H151     1.0000 0.45730  0.35680  0.69420  Biso   1.000  H 
  H152     1.0000 0.54270  0.85680  0.80580  Biso   1.000  H 
  C201     1.0000 0.65400  0.50340  0.13520  Biso   1.000  C 
  C202     1.0000 0.34600  0.00340  0.36480  Biso   1.000  C 
  C203     1.0000 0.34600  0.49660  0.86480  Biso   1.000  C 
  C204     1.0000 0.65400  0.99660  0.63520  Biso   1.000  C 
  C205     1.0000 0.57770  0.47860  0.15330  Biso   1.000  C 
  C206     1.0000 0.42230  0.97860  0.34670  Biso   1.000  C 
  C207     1.0000 0.42230  0.52140  0.84670  Biso   1.000  C 
  C208     1.0000 0.57770  0.02140  0.65330  Biso   1.000  C 
  H153     1.0000 0.52570  0.49820  0.16000  Biso   1.000  H 
  H154     1.0000 0.47430  0.99820  0.34000  Biso   1.000  H 
  H155     1.0000 0.47430  0.50180  0.84000  Biso   1.000  H 
  H156     1.0000 0.52570  0.00180  0.66000  Biso   1.000  H 
  C209     1.0000 0.57960  0.42470  0.16130  Biso   1.000  C 
  C210     1.0000 0.42040  0.92470  0.33870  Biso   1.000  C 
  C211     1.0000 0.42040  0.57530  0.83870  Biso   1.000  C 
  C212     1.0000 0.57960  0.07530  0.66130  Biso   1.000  C 
  H157     1.0000 0.52690  0.40770  0.17140  Biso   1.000  H 
  H158     1.0000 0.47310  0.90770  0.32860  Biso   1.000  H 
  H159     1.0000 0.47310  0.59230  0.82860  Biso   1.000  H 
  H160     1.0000 0.52690  0.09230  0.67140  Biso   1.000  H 
  C213     1.0000 0.65740  0.39510  0.15480  Biso   1.000  C 
  C214     1.0000 0.34260  0.89510  0.34520  Biso   1.000  C 
  C215     1.0000 0.34260  0.60490  0.84520  Biso   1.000  C 
  C216     1.0000 0.65740  0.10490  0.65480  Biso   1.000  C 
  C217     1.0000 0.73320  0.42070  0.13560  Biso   1.000  C 
  C218     1.0000 0.26680  0.92070  0.36440  Biso   1.000  C 
  C219     1.0000 0.26680  0.57930  0.86440  Biso   1.000  C 
  C220     1.0000 0.73320  0.07930  0.63560  Biso   1.000  C 
  H161     1.0000 0.78520  0.40100  0.12900  Biso   1.000  H 
  H162     1.0000 0.21480  0.90100  0.37100  Biso   1.000  H 
  H163     1.0000 0.21480  0.59900  0.87100  Biso   1.000  H 
  H164     1.0000 0.78520  0.09900  0.62900  Biso   1.000  H 
  C221     1.0000 0.73230  0.47490  0.12630  Biso   1.000  C 
  C222     1.0000 0.26770  0.97490  0.37370  Biso   1.000  C 
  C223     1.0000 0.26770  0.52510  0.87370  Biso   1.000  C 
  C224     1.0000 0.73230  0.02510  0.62630  Biso   1.000  C 
  H165     1.0000 0.78370  0.49190  0.11420  Biso   1.000  H 
  H166     1.0000 0.21630  0.99190  0.38580  Biso   1.000  H 
  H167     1.0000 0.21630  0.50810  0.88580  Biso   1.000  H 
  H168     1.0000 0.78370  0.00810  0.61420  Biso   1.000  H 
  N5       1.0000 0.41310  0.72060  0.46860  Biso   1.000  N 
  N6       1.0000 0.58690  0.22060  0.03140  Biso   1.000  N 
  N7       1.0000 0.58690  0.27940  0.53140  Biso   1.000  N 
  N8       1.0000 0.41310  0.77940  0.96860  Biso   1.000  N 
  O13      1.0000 0.20020  0.69586  0.33720  Biso   1.000  O 
  O14      1.0000 0.79980  0.19586  0.16280  Biso   1.000  O 
  O15      1.0000 0.79980  0.30414  0.66280  Biso   1.000  O 
  O16      1.0000 0.20020  0.80414  0.83720  Biso   1.000  O 
  O17      1.0000 0.11200  0.68044  0.19180  Biso   1.000  O 
  O18      1.0000 0.88800  0.18044  0.30820  Biso   1.000  O 
  O19      1.0000 0.88800  0.31956  0.80820  Biso   1.000  O 
  O20      1.0000 0.11200  0.81956  0.69180  Biso   1.000  O 
  O21      1.0000 0.85410  0.54470  0.35820  Biso   1.000  O 
  O22      1.0000 0.14590  0.04470  0.14180  Biso   1.000  O 
  O23      1.0000 0.14590  0.45530  0.64180  Biso   1.000  O 
  O24      1.0000 0.85410  0.95530  0.85820  Biso   1.000  O 
  O25      1.0000 0.94880  0.29780  0.36260  Biso   1.000  O 
  O26      1.0000 0.05120  0.79780  0.13740  Biso   1.000  O 
  O27      1.0000 0.05120  0.70220  0.63740  Biso   1.000  O 
  O28      1.0000 0.94880  0.20220  0.86260  Biso   1.000  O 
  O29      1.0000 0.65930  0.55795  0.12530  Biso   1.000  O 
  O30      1.0000 0.34070  0.05795  0.37470  Biso   1.000  O 
  O31      1.0000 0.34070  0.44205  0.87470  Biso   1.000  O 
  O32      1.0000 0.65930  0.94205  0.62530  Biso   1.000  O 
  O33      1.0000 0.29020  0.69225  0.12730  Biso   1.000  O 
  O34      1.0000 0.70980  0.19225  0.37270  Biso   1.000  O 
  O35      1.0000 0.70980  0.30775  0.87270  Biso   1.000  O 
  O36      1.0000 0.29020  0.80775  0.62730  Biso   1.000  O 
  O37      1.0000 0.38440  0.69659  0.27290  Biso   1.000  O 
  O38      1.0000 0.61560  0.19659  0.22710  Biso   1.000  O 
  O39      1.0000 0.61560  0.30341  0.72710  Biso   1.000  O 
  O40      1.0000 0.38440  0.80341  0.77290  Biso   1.000  O 
  H169     1.0000 0.74801  0.55833  0.71213  Biso   1.000  H 
  H170     1.0000 0.25199  0.05833  0.78787  Biso   1.000  H 
  H171     1.0000 0.25199  0.44167  0.28787  Biso   1.000  H 
  H172     1.0000 0.74801  0.94167  0.21213  Biso   1.000  H 
  H173     1.0000 0.56615  0.61181  0.60753  Biso   1.000  H 
  H174     1.0000 0.43385  0.11181  0.89247  Biso   1.000  H 
  H175     1.0000 0.43385  0.38819  0.39247  Biso   1.000  H 
  H176     1.0000 0.56615  0.88819  0.10753  Biso   1.000  H 
