data_image0
_cell_length_a       11.3646
_cell_length_b       14.8491
_cell_length_c       14.7153
_cell_angle_alpha    90
_cell_angle_beta     98.85
_cell_angle_gamma    90

_symmetry_space_group_name_H-M    "P 1"
_symmetry_int_tables_number       1

loop_
  _symmetry_equiv_pos_as_xyz
  'x, y, z'

loop_
  _atom_site_label
  _atom_site_occupancy
  _atom_site_fract_x
  _atom_site_fract_y
  _atom_site_fract_z
  _atom_site_thermal_displace_type
  _atom_site_B_iso_or_equiv
  _atom_site_type_symbol
  C1       1.0000 0.76130  0.74770  0.69710  Biso   1.000  C 
  N1       1.0000 0.81400  0.68560  0.65190  Biso   1.000  N 
  C2       1.0000 0.80690  0.72090  0.56570  Biso   1.000  C 
  C3       1.0000 0.74850  0.80350  0.56260  Biso   1.000  C 
  N2       1.0000 0.71900  0.81930  0.64830  Biso   1.000  N 
  Cu1      1.0000 0.61820  0.91612  0.69700  Biso   1.000  Cu
  I1       1.0000 0.38967  0.84789  0.67332  Biso   1.000  I 
  Cu2      1.0000 0.41722  0.02571  0.67300  Biso   1.000  Cu
  N3       1.0000 0.30860  0.09110  0.57490  Biso   1.000  N 
  C4       1.0000 0.28160  0.13760  0.51270  Biso   1.000  C 
  C5       1.0000 0.25150  0.19650  0.43740  Biso   1.000  C 
  N4       1.0000 0.28100  0.18070  0.35170  Biso   1.000  N 
  C6       1.0000 0.23870  0.25230  0.30290  Biso   1.000  C 
  H1       1.0000 0.24560  0.25860  0.24110  Biso   1.000  H 
  N5       1.0000 0.18600  0.31440  0.34810  Biso   1.000  N 
  C7       1.0000 0.19310  0.27910  0.43430  Biso   1.000  C 
  C8       1.0000 0.15000  0.32500  0.50760  Biso   1.000  C 
  N6       1.0000 0.11480  0.35960  0.56810  Biso   1.000  N 
  Cu3      1.0000 0.04068  0.42570  0.66306  Biso   1.000  Cu
  I2       1.0000 0.11033  0.34789  0.82668  Biso   1.000  I 
  Cu4      1.0000 0.88180  0.41612  0.80300  Biso   1.000  Cu
  I3       1.0000 0.80495  0.42192  0.61757  Biso   1.000  I 
  Cu5      1.0000 0.89179  0.57051  0.70398  Biso   1.000  Cu
  I4       1.0000 0.87254  0.57354  0.88265  Biso   1.000  I 
  Cu6      1.0000 0.08278  0.52571  0.82700  Biso   1.000  Cu
  I5       1.0000 0.12031  0.59533  0.66574  Biso   1.000  I 
  N7       1.0000 0.19140  0.59110  0.92510  Biso   1.000  N 
  C9       1.0000 0.21840  0.63760  0.98730  Biso   1.000  C 
  C10      1.0000 0.24850  0.69650  0.06260  Biso   1.000  C 
  C11      1.0000 0.30690  0.77910  0.06570  Biso   1.000  C 
  N8       1.0000 0.31400  0.81440  0.15190  Biso   1.000  N 
  C12      1.0000 0.26130  0.75230  0.19710  Biso   1.000  C 
  N9       1.0000 0.21900  0.68070  0.14830  Biso   1.000  N 
  Cu7      1.0000 0.11820  0.58388  0.19700  Biso   1.000  Cu
  I6       1.0000 0.12746  0.42646  0.11735  Biso   1.000  I 
  Cu8      1.0000 0.91722  0.47429  0.17300  Biso   1.000  Cu
  N10      1.0000 0.80860  0.40890  0.07490  Biso   1.000  N 
  C13      1.0000 0.78160  0.36240  0.01270  Biso   1.000  C 
  C14      1.0000 0.75150  0.30350  0.93740  Biso   1.000  C 
  N11      1.0000 0.78100  0.31930  0.85170  Biso   1.000  N 
  C15      1.0000 0.73870  0.24770  0.80290  Biso   1.000  C 
  H2       1.0000 0.74560  0.24140  0.74110  Biso   1.000  H 
  C16      1.0000 0.69310  0.22090  0.93430  Biso   1.000  C 
  N12      1.0000 0.68600  0.18560  0.84810  Biso   1.000  N 
  Cu9      1.0000 0.60821  0.07051  0.79602  Biso   1.000  Cu
  I7       1.0000 0.37969  0.09533  0.83426  Biso   1.000  I 
  Cu10     1.0000 0.45932  0.92570  0.83694  Biso   1.000  Cu
  N13      1.0000 0.38520  0.85960  0.93190  Biso   1.000  N 
  C17      1.0000 0.35000  0.82500  0.99240  Biso   1.000  C 
  I8       1.0000 0.69505  0.92192  0.88243  Biso   1.000  I 
  I9       1.0000 0.62746  0.07354  0.61735  Biso   1.000  I 
  C18      1.0000 0.65000  0.17500  0.00760  Biso   1.000  C 
  N14      1.0000 0.61480  0.14040  0.06810  Biso   1.000  N 
  Cu11     1.0000 0.54068  0.07430  0.16306  Biso   1.000  Cu
  I10      1.0000 0.30495  0.07808  0.11757  Biso   1.000  I 
  Cu12     1.0000 0.39179  0.92949  0.20398  Biso   1.000  Cu
  I11      1.0000 0.37254  0.92646  0.38265  Biso   1.000  I 
  Cu13     1.0000 0.38180  0.08388  0.30300  Biso   1.000  Cu
  I12      1.0000 0.61033  0.15211  0.32668  Biso   1.000  I 
  Cu14     1.0000 0.58278  0.97429  0.32700  Biso   1.000  Cu
  I13      1.0000 0.62031  0.90467  0.16574  Biso   1.000  I 
  N15      1.0000 0.69140  0.90890  0.42510  Biso   1.000  N 
  C19      1.0000 0.71840  0.86240  0.48730  Biso   1.000  C 
  I14      1.0000 0.87969  0.40467  0.33426  Biso   1.000  I 
  Cu15     1.0000 0.10821  0.42949  0.29602  Biso   1.000  Cu
  I15      1.0000 0.19505  0.57808  0.38243  Biso   1.000  I 
  Cu16     1.0000 0.95932  0.57430  0.33694  Biso   1.000  Cu
  I16      1.0000 0.88967  0.65211  0.17332  Biso   1.000  I 
  N16      1.0000 0.88520  0.64040  0.43190  Biso   1.000  N 
  C20      1.0000 0.85000  0.67500  0.49240  Biso   1.000  C 
  H3       1.0000 0.25440  0.75860  0.25890  Biso   1.000  H 
  H4       1.0000 0.75440  0.74140  0.75890  Biso   1.000  H 
