data_image0
_cell_length_a       16.2377
_cell_length_b       15.5366
_cell_length_c       17.4934
_cell_angle_alpha    90
_cell_angle_beta     90.722
_cell_angle_gamma    90

_symmetry_space_group_name_H-M    "P 1"
_symmetry_int_tables_number       1

loop_
  _symmetry_equiv_pos_as_xyz
  'x, y, z'

loop_
  _atom_site_label
  _atom_site_occupancy
  _atom_site_fract_x
  _atom_site_fract_y
  _atom_site_fract_z
  _atom_site_thermal_displace_type
  _atom_site_B_iso_or_equiv
  _atom_site_type_symbol
  N1       1.0000 0.86914  0.25540  0.79080  Biso   1.000  N 
  C1       1.0000 0.81940  0.32130  0.78900  Biso   1.000  C 
  N2       1.0000 0.77880  0.38202  0.79391  Biso   1.000  N 
  Cd1      1.0000 0.70172  0.50674  0.79930  Biso   1.000  Cd
  N3       1.0000 0.58023  0.43015  0.79437  Biso   1.000  N 
  C2       1.0000 0.51660  0.40110  0.78014  Biso   1.000  C 
  N4       1.0000 0.44769  0.36030  0.76830  Biso   1.000  N 
  C3       1.0000 0.38160  0.39980  0.74440  Biso   1.000  C 
  N5       1.0000 0.31958  0.42800  0.72227  Biso   1.000  N 
  Cd2      1.0000 0.19878  0.50796  0.70311  Biso   1.000  Cd
  N6       1.0000 0.12790  0.37740  0.69330  Biso   1.000  N 
  C4       1.0000 0.12560  0.31110  0.72270  Biso   1.000  C 
  N7       1.0000 0.11317  0.23680  0.75470  Biso   1.000  N 
  C5       1.0000 0.17300  0.18210  0.76860  Biso   1.000  C 
  N8       1.0000 0.21959  0.12969  0.78493  Biso   1.000  N 
  Cd3      1.0000 0.30122  0.00796  0.79689  Biso   1.000  Cd
  N9       1.0000 0.31369  0.00310  0.66526  Biso   1.000  N 
  C6       1.0000 0.31240  0.00590  0.60020  Biso   1.000  C 
  N10      1.0000 0.32240  0.00820  0.52724  Biso   1.000  N 
  C7       1.0000 0.26000  0.00350  0.47860  Biso   1.000  C 
  N11      1.0000 0.21100  0.99920  0.43123  Biso   1.000  N 
  Cd4      1.0000 0.20172  0.99326  0.29930  Biso   1.000  Cd
  N12      1.0000 0.19940  0.98310  0.16677  Biso   1.000  N 
  C8       1.0000 0.19680  0.97930  0.10210  Biso   1.000  C 
  N13      1.0000 0.18330  0.97140  0.02842  Biso   1.000  N 
  C9       1.0000 0.23800  0.99150  0.97760  Biso   1.000  C 
  N14      1.0000 0.28020  0.00700  0.92725  Biso   1.000  N 
  N15      1.0000 0.13240  0.86172  0.30321  Biso   1.000  N 
  C10      1.0000 0.13550  0.80560  0.26080  Biso   1.000  C 
  N16      1.0000 0.13086  0.74460  0.20920  Biso   1.000  N 
  C11      1.0000 0.18060  0.67870  0.21100  Biso   1.000  C 
  N17      1.0000 0.22120  0.61798  0.20609  Biso   1.000  N 
  Cd5      1.0000 0.29828  0.49326  0.20070  Biso   1.000  Cd
  N18      1.0000 0.17215  0.41858  0.20237  Biso   1.000  N 
  C12      1.0000 0.10730  0.39310  0.21550  Biso   1.000  C 
  N19      1.0000 0.03571  0.35600  0.22380  Biso   1.000  N 
  C13      1.0000 0.97770  0.38900  0.26470  Biso   1.000  C 
  N20      1.0000 0.92210  0.41174  0.29994  Biso   1.000  N 
  Cd6      1.0000 0.80122  0.49204  0.29689  Biso   1.000  Cd
  N21      1.0000 0.81369  0.49690  0.16526  Biso   1.000  N 
  C14      1.0000 0.81240  0.49410  0.10020  Biso   1.000  C 
  N22      1.0000 0.82240  0.49180  0.02724  Biso   1.000  N 
  C15      1.0000 0.76000  0.49650  0.97860  Biso   1.000  C 
  N23      1.0000 0.71100  0.50080  0.93123  Biso   1.000  N 
  N24      1.0000 0.71959  0.37031  0.28493  Biso   1.000  N 
  C16      1.0000 0.67300  0.31790  0.26860  Biso   1.000  C 
  N25      1.0000 0.61317  0.26320  0.25470  Biso   1.000  N 
  C17      1.0000 0.62560  0.18890  0.22270  Biso   1.000  C 
  N26      1.0000 0.62790  0.12260  0.19330  Biso   1.000  N 
  Cd7      1.0000 0.69878  0.99204  0.20311  Biso   1.000  Cd
  N27      1.0000 0.78041  0.87031  0.21507  Biso   1.000  N 
  C18      1.0000 0.82700  0.81790  0.23140  Biso   1.000  C 
  N28      1.0000 0.88683  0.76320  0.24530  Biso   1.000  N 
  C19      1.0000 0.87440  0.68890  0.27730  Biso   1.000  C 
  N29      1.0000 0.87210  0.62260  0.30670  Biso   1.000  N 
  N30      1.0000 0.57790  0.91174  0.20006  Biso   1.000  N 
  C20      1.0000 0.52230  0.88900  0.23530  Biso   1.000  C 
  N31      1.0000 0.46429  0.85600  0.27620  Biso   1.000  N 
  C21      1.0000 0.39270  0.89310  0.28450  Biso   1.000  C 
  N32      1.0000 0.32785  0.91858  0.29763  Biso   1.000  N 
  N33      1.0000 0.71980  0.99300  0.07275  Biso   1.000  N 
  C22      1.0000 0.76200  0.00850  0.02240  Biso   1.000  C 
  N34      1.0000 0.81670  0.02860  0.97158  Biso   1.000  N 
  C23      1.0000 0.80320  0.02070  0.89790  Biso   1.000  C 
  N35      1.0000 0.80060  0.01690  0.83323  Biso   1.000  N 
  Cd8      1.0000 0.79828  0.00674  0.70070  Biso   1.000  Cd
  N36      1.0000 0.67215  0.08142  0.70237  Biso   1.000  N 
  C24      1.0000 0.60730  0.10690  0.71550  Biso   1.000  C 
  N37      1.0000 0.53571  0.14400  0.72380  Biso   1.000  N 
  C25      1.0000 0.47770  0.11100  0.76470  Biso   1.000  C 
  N38      1.0000 0.42210  0.08826  0.79994  Biso   1.000  N 
  N39      1.0000 0.78900  0.00080  0.56877  Biso   1.000  N 
  C26      1.0000 0.74000  0.99650  0.52140  Biso   1.000  C 
  N40      1.0000 0.67760  0.99180  0.47276  Biso   1.000  N 
  C27      1.0000 0.68760  0.99410  0.39980  Biso   1.000  C 
  N41      1.0000 0.68631  0.99690  0.33474  Biso   1.000  N 
  N42      1.0000 0.86760  0.13828  0.69679  Biso   1.000  N 
  C28      1.0000 0.86450  0.19440  0.73920  Biso   1.000  C 
  N43      1.0000 0.72120  0.88202  0.70609  Biso   1.000  N 
  C29      1.0000 0.68060  0.82130  0.71100  Biso   1.000  C 
  N44      1.0000 0.63086  0.75540  0.70920  Biso   1.000  N 
  C30      1.0000 0.63550  0.69440  0.76080  Biso   1.000  C 
  N45      1.0000 0.63240  0.63828  0.80321  Biso   1.000  N 
  N46      1.0000 0.91977  0.93015  0.70563  Biso   1.000  N 
  C31      1.0000 0.98340  0.90110  0.71986  Biso   1.000  C 
  N47      1.0000 0.05231  0.86030  0.73170  Biso   1.000  N 
  C32      1.0000 0.11840  0.89980  0.75560  Biso   1.000  C 
  N48      1.0000 0.18042  0.92800  0.77773  Biso   1.000  N 
  N49      1.0000 0.81958  0.07200  0.22227  Biso   1.000  N 
  C33      1.0000 0.88160  0.10020  0.24440  Biso   1.000  C 
  N50      1.0000 0.94769  0.13970  0.26830  Biso   1.000  N 
  C34      1.0000 0.01660  0.09890  0.28014  Biso   1.000  C 
  N51      1.0000 0.08023  0.06985  0.29437  Biso   1.000  N 
  N52      1.0000 0.78020  0.49300  0.42725  Biso   1.000  N 
  C35      1.0000 0.73800  0.50850  0.47760  Biso   1.000  C 
  N53      1.0000 0.68330  0.52860  0.52842  Biso   1.000  N 
  C36      1.0000 0.69680  0.52070  0.60210  Biso   1.000  C 
  N54      1.0000 0.69940  0.51690  0.66677  Biso   1.000  N 
  N55      1.0000 0.68042  0.57200  0.27773  Biso   1.000  N 
  C37      1.0000 0.61840  0.60020  0.25560  Biso   1.000  C 
  N56      1.0000 0.55231  0.63970  0.23170  Biso   1.000  N 
  C38      1.0000 0.48340  0.59890  0.21986  Biso   1.000  C 
  N57      1.0000 0.41977  0.56985  0.20563  Biso   1.000  N 
  N58      1.0000 0.28900  0.49920  0.06877  Biso   1.000  N 
  C39      1.0000 0.24000  0.50350  0.02140  Biso   1.000  C 
  N59      1.0000 0.17760  0.50820  0.97276  Biso   1.000  N 
  C40      1.0000 0.18760  0.50590  0.89980  Biso   1.000  C 
  N60      1.0000 0.18631  0.50310  0.83474  Biso   1.000  N 
  N61      1.0000 0.36760  0.36172  0.19679  Biso   1.000  N 
  C41      1.0000 0.36450  0.30560  0.23920  Biso   1.000  C 
  N62      1.0000 0.36914  0.24460  0.29080  Biso   1.000  N 
  C42      1.0000 0.31940  0.17870  0.28900  Biso   1.000  C 
  N63      1.0000 0.27880  0.11798  0.29391  Biso   1.000  N 
  N64      1.0000 0.30060  0.48310  0.33323  Biso   1.000  N 
  C43      1.0000 0.30320  0.47930  0.39790  Biso   1.000  C 
  N65      1.0000 0.31670  0.47140  0.47158  Biso   1.000  N 
  C44      1.0000 0.26200  0.49150  0.52240  Biso   1.000  C 
  N66      1.0000 0.21980  0.50700  0.57275  Biso   1.000  N 
  N67      1.0000 0.37210  0.87740  0.80670  Biso   1.000  N 
  C45      1.0000 0.37440  0.81110  0.77730  Biso   1.000  C 
  N68      1.0000 0.38683  0.73680  0.74530  Biso   1.000  N 
  C46      1.0000 0.32700  0.68210  0.73140  Biso   1.000  C 
  N69      1.0000 0.28041  0.62969  0.71507  Biso   1.000  N 
  N70      1.0000 0.07790  0.58826  0.70006  Biso   1.000  N 
  C47      1.0000 0.02230  0.61100  0.73530  Biso   1.000  C 
  N71      1.0000 0.96429  0.64400  0.77620  Biso   1.000  N 
  C48      1.0000 0.89270  0.60690  0.78450  Biso   1.000  C 
  N72      1.0000 0.82785  0.58142  0.79763  Biso   1.000  N 
