data_image0
_cell_length_a       15.737
_cell_length_b       20.656
_cell_length_c       22.016
_cell_angle_alpha    90
_cell_angle_beta     110.369
_cell_angle_gamma    90

_symmetry_space_group_name_H-M    "P 1"
_symmetry_int_tables_number       1

loop_
  _symmetry_equiv_pos_as_xyz
  'x, y, z'

loop_
  _atom_site_label
  _atom_site_occupancy
  _atom_site_fract_x
  _atom_site_fract_y
  _atom_site_fract_z
  _atom_site_thermal_displace_type
  _atom_site_B_iso_or_equiv
  _atom_site_type_symbol
  C1       1.0000 0.02940  0.37367  0.54297  Biso   1.000  C 
  C2       1.0000 0.97060  0.37367  0.95703  Biso   1.000  C 
  C3       1.0000 0.52940  0.87367  0.54297  Biso   1.000  C 
  C4       1.0000 0.47060  0.87367  0.95703  Biso   1.000  C 
  C5       1.0000 0.97060  0.62633  0.45703  Biso   1.000  C 
  C6       1.0000 0.02940  0.62633  0.04297  Biso   1.000  C 
  C7       1.0000 0.47060  0.12633  0.45703  Biso   1.000  C 
  C8       1.0000 0.52940  0.12633  0.04297  Biso   1.000  C 
  C9       1.0000 0.04310  0.30509  0.56665  Biso   1.000  C 
  C10      1.0000 0.95690  0.30509  0.93335  Biso   1.000  C 
  C11      1.0000 0.54310  0.80509  0.56665  Biso   1.000  C 
  C12      1.0000 0.45690  0.80509  0.93335  Biso   1.000  C 
  C13      1.0000 0.95690  0.69491  0.43335  Biso   1.000  C 
  C14      1.0000 0.04310  0.69491  0.06665  Biso   1.000  C 
  C15      1.0000 0.45690  0.19491  0.43335  Biso   1.000  C 
  C16      1.0000 0.54310  0.19491  0.06665  Biso   1.000  C 
  C17      1.0000 0.05010  0.29058  0.63010  Biso   1.000  C 
  C18      1.0000 0.94990  0.29058  0.86990  Biso   1.000  C 
  C19      1.0000 0.55010  0.79058  0.63010  Biso   1.000  C 
  C20      1.0000 0.44990  0.79058  0.86990  Biso   1.000  C 
  C21      1.0000 0.94990  0.70942  0.36990  Biso   1.000  C 
  C22      1.0000 0.05010  0.70942  0.13010  Biso   1.000  C 
  C23      1.0000 0.44990  0.20942  0.36990  Biso   1.000  C 
  C24      1.0000 0.55010  0.20942  0.13010  Biso   1.000  C 
  H1       1.0000 0.04700  0.32370  0.65790  Biso   1.000  H 
  H2       1.0000 0.95300  0.32370  0.84210  Biso   1.000  H 
  H3       1.0000 0.54700  0.82370  0.65790  Biso   1.000  H 
  H4       1.0000 0.45300  0.82370  0.84210  Biso   1.000  H 
  H5       1.0000 0.95300  0.67630  0.34210  Biso   1.000  H 
  H6       1.0000 0.04700  0.67630  0.15790  Biso   1.000  H 
  H7       1.0000 0.45300  0.17630  0.34210  Biso   1.000  H 
  H8       1.0000 0.54700  0.17630  0.15790  Biso   1.000  H 
  C25      1.0000 0.06150  0.22697  0.65193  Biso   1.000  C 
  C26      1.0000 0.93850  0.22697  0.84807  Biso   1.000  C 
  C27      1.0000 0.56150  0.72697  0.65193  Biso   1.000  C 
  C28      1.0000 0.43850  0.72697  0.84807  Biso   1.000  C 
  C29      1.0000 0.93850  0.77303  0.34807  Biso   1.000  C 
  C30      1.0000 0.06150  0.77303  0.15193  Biso   1.000  C 
  C31      1.0000 0.43850  0.27303  0.34807  Biso   1.000  C 
  C32      1.0000 0.56150  0.27303  0.15193  Biso   1.000  C 
  H9       1.0000 0.06560  0.21740  0.69410  Biso   1.000  H 
  H10      1.0000 0.93440  0.21740  0.80590  Biso   1.000  H 
  H11      1.0000 0.56560  0.71740  0.69410  Biso   1.000  H 
  H12      1.0000 0.43440  0.71740  0.80590  Biso   1.000  H 
  H13      1.0000 0.93440  0.78260  0.30590  Biso   1.000  H 
  H14      1.0000 0.06560  0.78260  0.19410  Biso   1.000  H 
  H15      1.0000 0.43440  0.28260  0.30590  Biso   1.000  H 
  H16      1.0000 0.56560  0.28260  0.19410  Biso   1.000  H 
  C33      1.0000 0.06680  0.17861  0.61100  Biso   1.000  C 
  C34      1.0000 0.93320  0.17861  0.88900  Biso   1.000  C 
  C35      1.0000 0.56680  0.67861  0.61100  Biso   1.000  C 
  C36      1.0000 0.43320  0.67861  0.88900  Biso   1.000  C 
  C37      1.0000 0.93320  0.82139  0.38900  Biso   1.000  C 
  C38      1.0000 0.06680  0.82139  0.11100  Biso   1.000  C 
  C39      1.0000 0.43320  0.32139  0.38900  Biso   1.000  C 
  C40      1.0000 0.56680  0.32139  0.11100  Biso   1.000  C 
  C41      1.0000 0.06130  0.19246  0.54769  Biso   1.000  C 
  C42      1.0000 0.93870  0.19246  0.95231  Biso   1.000  C 
  C43      1.0000 0.56130  0.69246  0.54769  Biso   1.000  C 
  C44      1.0000 0.43870  0.69246  0.95231  Biso   1.000  C 
  C45      1.0000 0.93870  0.80754  0.45231  Biso   1.000  C 
  C46      1.0000 0.06130  0.80754  0.04769  Biso   1.000  C 
  C47      1.0000 0.43870  0.30754  0.45231  Biso   1.000  C 
  C48      1.0000 0.56130  0.30754  0.04769  Biso   1.000  C 
  H17      1.0000 0.06550  0.15920  0.52030  Biso   1.000  H 
  H18      1.0000 0.93450  0.15920  0.97970  Biso   1.000  H 
  H19      1.0000 0.56550  0.65920  0.52030  Biso   1.000  H 
  H20      1.0000 0.43450  0.65920  0.97970  Biso   1.000  H 
  H21      1.0000 0.93450  0.84080  0.47970  Biso   1.000  H 
  H22      1.0000 0.06550  0.84080  0.02030  Biso   1.000  H 
  H23      1.0000 0.43450  0.34080  0.47970  Biso   1.000  H 
  H24      1.0000 0.56550  0.34080  0.02030  Biso   1.000  H 
  C49      1.0000 0.04990  0.25521  0.52597  Biso   1.000  C 
  C50      1.0000 0.95010  0.25521  0.97403  Biso   1.000  C 
  C51      1.0000 0.54990  0.75521  0.52597  Biso   1.000  C 
  C52      1.0000 0.45010  0.75521  0.97403  Biso   1.000  C 
  C53      1.0000 0.95010  0.74479  0.47403  Biso   1.000  C 
  C54      1.0000 0.04990  0.74479  0.02597  Biso   1.000  C 
  C55      1.0000 0.45010  0.24479  0.47403  Biso   1.000  C 
  C56      1.0000 0.54990  0.24479  0.02597  Biso   1.000  C 
  H25      1.0000 0.04660  0.26450  0.48390  Biso   1.000  H 
  H26      1.0000 0.95340  0.26450  0.01610  Biso   1.000  H 
  H27      1.0000 0.54660  0.76450  0.48390  Biso   1.000  H 
  H28      1.0000 0.45340  0.76450  0.01610  Biso   1.000  H 
  H29      1.0000 0.95340  0.73550  0.51610  Biso   1.000  H 
  H30      1.0000 0.04660  0.73550  0.98390  Biso   1.000  H 
  H31      1.0000 0.45340  0.23550  0.51610  Biso   1.000  H 
  H32      1.0000 0.54660  0.23550  0.98390  Biso   1.000  H 
  C57      1.0000 0.95940  0.07180  0.60299  Biso   1.000  C 
  C58      1.0000 0.04060  0.07180  0.89701  Biso   1.000  C 
  C59      1.0000 0.45940  0.57180  0.60299  Biso   1.000  C 
  C60      1.0000 0.54060  0.57180  0.89701  Biso   1.000  C 
  C61      1.0000 0.04060  0.92820  0.39701  Biso   1.000  C 
  C62      1.0000 0.95940  0.92820  0.10299  Biso   1.000  C 
  C63      1.0000 0.54060  0.42820  0.39701  Biso   1.000  C 
  C64      1.0000 0.45940  0.42820  0.10299  Biso   1.000  C 
  C65      1.0000 0.92850  0.04845  0.54035  Biso   1.000  C 
  C66      1.0000 0.07150  0.04845  0.95965  Biso   1.000  C 
  C67      1.0000 0.42850  0.54845  0.54035  Biso   1.000  C 
  C68      1.0000 0.57150  0.54845  0.95965  Biso   1.000  C 
  C69      1.0000 0.07150  0.95155  0.45965  Biso   1.000  C 
  C70      1.0000 0.92850  0.95155  0.04035  Biso   1.000  C 
  C71      1.0000 0.57150  0.45155  0.45965  Biso   1.000  C 
  C72      1.0000 0.42850  0.45155  0.04035  Biso   1.000  C 
  H33      1.0000 0.96790  0.04480  0.51740  Biso   1.000  H 
  H34      1.0000 0.03210  0.04480  0.98260  Biso   1.000  H 
  H35      1.0000 0.46790  0.54480  0.51740  Biso   1.000  H 
  H36      1.0000 0.53210  0.54480  0.98260  Biso   1.000  H 
  H37      1.0000 0.03210  0.95520  0.48260  Biso   1.000  H 
  H38      1.0000 0.96790  0.95520  0.01740  Biso   1.000  H 
  H39      1.0000 0.53210  0.45520  0.48260  Biso   1.000  H 
  H40      1.0000 0.46790  0.45520  0.01740  Biso   1.000  H 
  C73      1.0000 0.83870  0.03056  0.51195  Biso   1.000  C 
  C74      1.0000 0.16130  0.03056  0.98805  Biso   1.000  C 
  C75      1.0000 0.33870  0.53056  0.51195  Biso   1.000  C 
  C76      1.0000 0.66130  0.53056  0.98805  Biso   1.000  C 
  C77      1.0000 0.16130  0.96944  0.48805  Biso   1.000  C 
  C78      1.0000 0.83870  0.96944  0.01195  Biso   1.000  C 
  C79      1.0000 0.66130  0.46944  0.48805  Biso   1.000  C 
  C80      1.0000 0.33870  0.46944  0.01195  Biso   1.000  C 
  H41      1.0000 0.81790  0.01380  0.47010  Biso   1.000  H 
  H42      1.0000 0.18210  0.01380  0.02990  Biso   1.000  H 
  H43      1.0000 0.31790  0.51380  0.47010  Biso   1.000  H 
  H44      1.0000 0.68210  0.51380  0.02990  Biso   1.000  H 
  H45      1.0000 0.18210  0.98620  0.52990  Biso   1.000  H 
  H46      1.0000 0.81790  0.98620  0.97010  Biso   1.000  H 
  H47      1.0000 0.68210  0.48620  0.52990  Biso   1.000  H 
  H48      1.0000 0.31790  0.48620  0.97010  Biso   1.000  H 
  C81      1.0000 0.77940  0.03764  0.54575  Biso   1.000  C 
  C82      1.0000 0.22060  0.03764  0.95425  Biso   1.000  C 
  C83      1.0000 0.27940  0.53764  0.54575  Biso   1.000  C 
  C84      1.0000 0.72060  0.53764  0.95425  Biso   1.000  C 
  C85      1.0000 0.22060  0.96236  0.45425  Biso   1.000  C 
  C86      1.0000 0.77940  0.96236  0.04575  Biso   1.000  C 
  C87      1.0000 0.72060  0.46236  0.45425  Biso   1.000  C 
  C88      1.0000 0.27940  0.46236  0.04575  Biso   1.000  C 
  C89      1.0000 0.68160  0.01819  0.51490  Biso   1.000  C 
  C90      1.0000 0.31840  0.01819  0.98510  Biso   1.000  C 
  C91      1.0000 0.18160  0.51819  0.51490  Biso   1.000  C 
  C92      1.0000 0.81840  0.51819  0.98510  Biso   1.000  C 
  C93      1.0000 0.31840  0.98181  0.48510  Biso   1.000  C 
  C94      1.0000 0.68160  0.98181  0.01490  Biso   1.000  C 
  C95      1.0000 0.81840  0.48181  0.48510  Biso   1.000  C 
  C96      1.0000 0.18160  0.48181  0.01490  Biso   1.000  C 
  C97      1.0000 0.81160  0.06143  0.60901  Biso   1.000  C 
  C98      1.0000 0.18840  0.06143  0.89099  Biso   1.000  C 
  C99      1.0000 0.31160  0.56143  0.60901  Biso   1.000  C 
  C100     1.0000 0.68840  0.56143  0.89099  Biso   1.000  C 
  C101     1.0000 0.18840  0.93857  0.39099  Biso   1.000  C 
  C102     1.0000 0.81160  0.93857  0.10901  Biso   1.000  C 
  C103     1.0000 0.68840  0.43857  0.39099  Biso   1.000  C 
  C104     1.0000 0.31160  0.43857  0.10901  Biso   1.000  C 
  H49      1.0000 0.77190  0.06610  0.63170  Biso   1.000  H 
  H50      1.0000 0.22810  0.06610  0.86830  Biso   1.000  H 
  H51      1.0000 0.27190  0.56610  0.63170  Biso   1.000  H 
  H52      1.0000 0.72810  0.56610  0.86830  Biso   1.000  H 
  H53      1.0000 0.22810  0.93390  0.36830  Biso   1.000  H 
  H54      1.0000 0.77190  0.93390  0.13170  Biso   1.000  H 
  H55      1.0000 0.72810  0.43390  0.36830  Biso   1.000  H 
  H56      1.0000 0.27190  0.43390  0.13170  Biso   1.000  H 
  C105     1.0000 0.90200  0.07811  0.63846  Biso   1.000  C 
  C106     1.0000 0.09800  0.07811  0.86154  Biso   1.000  C 
  C107     1.0000 0.40200  0.57811  0.63846  Biso   1.000  C 
  C108     1.0000 0.59800  0.57811  0.86154  Biso   1.000  C 
  C109     1.0000 0.09800  0.92189  0.36154  Biso   1.000  C 
  C110     1.0000 0.90200  0.92189  0.13846  Biso   1.000  C 
  C111     1.0000 0.59800  0.42189  0.36154  Biso   1.000  C 
  C112     1.0000 0.40200  0.42189  0.13846  Biso   1.000  C 
  H57      1.0000 0.92380  0.09320  0.68090  Biso   1.000  H 
  H58      1.0000 0.07620  0.09320  0.81910  Biso   1.000  H 
  H59      1.0000 0.42380  0.59320  0.68090  Biso   1.000  H 
  H60      1.0000 0.57620  0.59320  0.81910  Biso   1.000  H 
  H61      1.0000 0.07620  0.90680  0.31910  Biso   1.000  H 
  H62      1.0000 0.92380  0.90680  0.18090  Biso   1.000  H 
  H63      1.0000 0.57620  0.40680  0.31910  Biso   1.000  H 
  H64      1.0000 0.42380  0.40680  0.18090  Biso   1.000  H 
  C113     1.0000 0.58940  0.01714  0.71790  Biso   1.000  C 
  C114     1.0000 0.41060  0.01714  0.78210  Biso   1.000  C 
  C115     1.0000 0.08940  0.51714  0.71790  Biso   1.000  C 
  C116     1.0000 0.91060  0.51714  0.78210  Biso   1.000  C 
  C117     1.0000 0.41060  0.98286  0.28210  Biso   1.000  C 
  C118     1.0000 0.58940  0.98286  0.21790  Biso   1.000  C 
  C119     1.0000 0.91060  0.48286  0.28210  Biso   1.000  C 
  C120     1.0000 0.08940  0.48286  0.21790  Biso   1.000  C 
  H65      1.0000 0.58280  0.97270  0.71130  Biso   1.000  H 
  H66      1.0000 0.41720  0.97270  0.78870  Biso   1.000  H 
  H67      1.0000 0.08280  0.47270  0.71130  Biso   1.000  H 
  H68      1.0000 0.91720  0.47270  0.78870  Biso   1.000  H 
  H69      1.0000 0.41720  0.02730  0.28870  Biso   1.000  H 
  H70      1.0000 0.58280  0.02730  0.21130  Biso   1.000  H 
  H71      1.0000 0.91720  0.52730  0.28870  Biso   1.000  H 
  H72      1.0000 0.08280  0.52730  0.21130  Biso   1.000  H 
  C121     1.0000 0.62960  0.03927  0.78004  Biso   1.000  C 
  C122     1.0000 0.37040  0.03927  0.71996  Biso   1.000  C 
  C123     1.0000 0.12960  0.53927  0.78004  Biso   1.000  C 
  C124     1.0000 0.87040  0.53927  0.71996  Biso   1.000  C 
  C125     1.0000 0.37040  0.96073  0.21996  Biso   1.000  C 
  C126     1.0000 0.62960  0.96073  0.28004  Biso   1.000  C 
  C127     1.0000 0.87040  0.46073  0.21996  Biso   1.000  C 
  C128     1.0000 0.12960  0.46073  0.28004  Biso   1.000  C 
  H73      1.0000 0.65020  0.01010  0.81420  Biso   1.000  H 
  H74      1.0000 0.34980  0.01010  0.68580  Biso   1.000  H 
  H75      1.0000 0.15020  0.51010  0.81420  Biso   1.000  H 
  H76      1.0000 0.84980  0.51010  0.68580  Biso   1.000  H 
  H77      1.0000 0.34980  0.98990  0.18580  Biso   1.000  H 
  H78      1.0000 0.65020  0.98990  0.31420  Biso   1.000  H 
  H79      1.0000 0.84980  0.48990  0.18580  Biso   1.000  H 
  H80      1.0000 0.15020  0.48990  0.31420  Biso   1.000  H 
  C129     1.0000 0.63970  0.10548  0.79192  Biso   1.000  C 
  C130     1.0000 0.36030  0.10548  0.70808  Biso   1.000  C 
  C131     1.0000 0.13970  0.60548  0.79192  Biso   1.000  C 
  C132     1.0000 0.86030  0.60548  0.70808  Biso   1.000  C 
  C133     1.0000 0.36030  0.89452  0.20808  Biso   1.000  C 
  C134     1.0000 0.63970  0.89452  0.29192  Biso   1.000  C 
  C135     1.0000 0.86030  0.39452  0.20808  Biso   1.000  C 
  C136     1.0000 0.13970  0.39452  0.29192  Biso   1.000  C 
  C137     1.0000 0.60980  0.14590  0.73763  Biso   1.000  C 
  C138     1.0000 0.39020  0.14590  0.76237  Biso   1.000  C 
  C139     1.0000 0.10980  0.64590  0.73763  Biso   1.000  C 
  C140     1.0000 0.89020  0.64590  0.76237  Biso   1.000  C 
  C141     1.0000 0.39020  0.85410  0.26237  Biso   1.000  C 
  C142     1.0000 0.60980  0.85410  0.23763  Biso   1.000  C 
  C143     1.0000 0.89020  0.35410  0.26237  Biso   1.000  C 
  C144     1.0000 0.10980  0.35410  0.23763  Biso   1.000  C 
  H81      1.0000 0.61680  0.19050  0.74280  Biso   1.000  H 
  H82      1.0000 0.38320  0.19050  0.75720  Biso   1.000  H 
  H83      1.0000 0.11680  0.69050  0.74280  Biso   1.000  H 
  H84      1.0000 0.88320  0.69050  0.75720  Biso   1.000  H 
  H85      1.0000 0.38320  0.80950  0.25720  Biso   1.000  H 
  H86      1.0000 0.61680  0.80950  0.24280  Biso   1.000  H 
  H87      1.0000 0.88320  0.30950  0.25720  Biso   1.000  H 
  H88      1.0000 0.11680  0.30950  0.24280  Biso   1.000  H 
  C145     1.0000 0.57060  0.12020  0.67726  Biso   1.000  C 
  C146     1.0000 0.42940  0.12020  0.82274  Biso   1.000  C 
  C147     1.0000 0.07060  0.62020  0.67726  Biso   1.000  C 
  C148     1.0000 0.92940  0.62020  0.82274  Biso   1.000  C 
  C149     1.0000 0.42940  0.87980  0.32274  Biso   1.000  C 
  C150     1.0000 0.57060  0.87980  0.17726  Biso   1.000  C 
  C151     1.0000 0.92940  0.37980  0.32274  Biso   1.000  C 
  C152     1.0000 0.07060  0.37980  0.17726  Biso   1.000  C 
  H89      1.0000 0.55090  0.14820  0.64200  Biso   1.000  H 
  H90      1.0000 0.44910  0.14820  0.85800  Biso   1.000  H 
  H91      1.0000 0.05090  0.64820  0.64200  Biso   1.000  H 
  H92      1.0000 0.94910  0.64820  0.85800  Biso   1.000  H 
  H93      1.0000 0.44910  0.85180  0.35800  Biso   1.000  H 
  H94      1.0000 0.55090  0.85180  0.14200  Biso   1.000  H 
  H95      1.0000 0.94910  0.35180  0.35800  Biso   1.000  H 
  H96      1.0000 0.05090  0.35180  0.14200  Biso   1.000  H 
  C153     1.0000 0.67660  0.12981  0.85870  Biso   1.000  C 
  C154     1.0000 0.32340  0.12981  0.64130  Biso   1.000  C 
  C155     1.0000 0.17660  0.62981  0.85870  Biso   1.000  C 
  C156     1.0000 0.82340  0.62981  0.64130  Biso   1.000  C 
  C157     1.0000 0.32340  0.87019  0.14130  Biso   1.000  C 
  C158     1.0000 0.67660  0.87019  0.35870  Biso   1.000  C 
  C159     1.0000 0.82340  0.37019  0.14130  Biso   1.000  C 
  C160     1.0000 0.17660  0.37019  0.35870  Biso   1.000  C 
  H97      1.0000 0.69480  0.09970  0.89210  Biso   1.000  H 
  H98      1.0000 0.30520  0.09970  0.60790  Biso   1.000  H 
  H99      1.0000 0.19480  0.59970  0.89210  Biso   1.000  H 
  H100     1.0000 0.80520  0.59970  0.60790  Biso   1.000  H 
  H101     1.0000 0.30520  0.90030  0.10790  Biso   1.000  H 
  H102     1.0000 0.69480  0.90030  0.39210  Biso   1.000  H 
  H103     1.0000 0.80520  0.40030  0.10790  Biso   1.000  H 
  H104     1.0000 0.19480  0.40030  0.39210  Biso   1.000  H 
  C161     1.0000 0.68540  0.19178  0.87426  Biso   1.000  C 
  C162     1.0000 0.31460  0.19178  0.62574  Biso   1.000  C 
  C163     1.0000 0.18540  0.69178  0.87426  Biso   1.000  C 
  C164     1.0000 0.81460  0.69178  0.62574  Biso   1.000  C 
  C165     1.0000 0.31460  0.80822  0.12574  Biso   1.000  C 
  C166     1.0000 0.68540  0.80822  0.37426  Biso   1.000  C 
  C167     1.0000 0.81460  0.30822  0.12574  Biso   1.000  C 
  C168     1.0000 0.18540  0.30822  0.37426  Biso   1.000  C 
  H105     1.0000 0.66830  0.22080  0.83980  Biso   1.000  H 
  H106     1.0000 0.33170  0.22080  0.66020  Biso   1.000  H 
  H107     1.0000 0.16830  0.72080  0.83980  Biso   1.000  H 
  H108     1.0000 0.83170  0.72080  0.66020  Biso   1.000  H 
  H109     1.0000 0.33170  0.77920  0.16020  Biso   1.000  H 
  H110     1.0000 0.66830  0.77920  0.33980  Biso   1.000  H 
  H111     1.0000 0.83170  0.27920  0.16020  Biso   1.000  H 
  H112     1.0000 0.16830  0.27920  0.33980  Biso   1.000  H 
  C169     1.0000 0.71840  0.22019  0.93863  Biso   1.000  C 
  C170     1.0000 0.28160  0.22019  0.56137  Biso   1.000  C 
  C171     1.0000 0.21840  0.72019  0.93863  Biso   1.000  C 
  C172     1.0000 0.78160  0.72019  0.56137  Biso   1.000  C 
  C173     1.0000 0.28160  0.77981  0.06137  Biso   1.000  C 
  C174     1.0000 0.71840  0.77981  0.43863  Biso   1.000  C 
  C175     1.0000 0.78160  0.27981  0.06137  Biso   1.000  C 
  C176     1.0000 0.21840  0.27981  0.43863  Biso   1.000  C 
  C177     1.0000 0.73370  0.28736  0.94441  Biso   1.000  C 
  C178     1.0000 0.26630  0.28736  0.55559  Biso   1.000  C 
  C179     1.0000 0.23370  0.78736  0.94441  Biso   1.000  C 
  C180     1.0000 0.76630  0.78736  0.55559  Biso   1.000  C 
  C181     1.0000 0.26630  0.71264  0.05559  Biso   1.000  C 
  C182     1.0000 0.73370  0.71264  0.44441  Biso   1.000  C 
  C183     1.0000 0.76630  0.21264  0.05559  Biso   1.000  C 
  C184     1.0000 0.23370  0.21264  0.44441  Biso   1.000  C 
  C185     1.0000 0.76420  0.31643  0.00465  Biso   1.000  C 
  C186     1.0000 0.23580  0.31643  0.49535  Biso   1.000  C 
  C187     1.0000 0.26420  0.81643  0.00465  Biso   1.000  C 
  C188     1.0000 0.73580  0.81643  0.49535  Biso   1.000  C 
  C189     1.0000 0.23580  0.68357  0.99535  Biso   1.000  C 
  C190     1.0000 0.76420  0.68357  0.50465  Biso   1.000  C 
  C191     1.0000 0.73580  0.18357  0.99535  Biso   1.000  C 
  C192     1.0000 0.26420  0.18357  0.50465  Biso   1.000  C 
  H113     1.0000 0.77340  0.36100  0.00770  Biso   1.000  H 
  H114     1.0000 0.22660  0.36100  0.49230  Biso   1.000  H 
  H115     1.0000 0.27340  0.86100  0.00770  Biso   1.000  H 
  H116     1.0000 0.72660  0.86100  0.49230  Biso   1.000  H 
  H117     1.0000 0.22660  0.63900  0.99230  Biso   1.000  H 
  H118     1.0000 0.77340  0.63900  0.50770  Biso   1.000  H 
  H119     1.0000 0.72660  0.13900  0.99230  Biso   1.000  H 
  H120     1.0000 0.27340  0.13900  0.50770  Biso   1.000  H 
  C193     1.0000 0.73290  0.38780  0.88735  Biso   1.000  C 
  C194     1.0000 0.26710  0.38780  0.61265  Biso   1.000  C 
  C195     1.0000 0.23290  0.88780  0.88735  Biso   1.000  C 
  C196     1.0000 0.76710  0.88780  0.61265  Biso   1.000  C 
  C197     1.0000 0.26710  0.61220  0.11265  Biso   1.000  C 
  C198     1.0000 0.73290  0.61220  0.38735  Biso   1.000  C 
  C199     1.0000 0.76710  0.11220  0.11265  Biso   1.000  C 
  C200     1.0000 0.23290  0.11220  0.38735  Biso   1.000  C 
  H121     1.0000 0.79020  0.39920  0.92040  Biso   1.000  H 
  H122     1.0000 0.20980  0.39920  0.57960  Biso   1.000  H 
  H123     1.0000 0.29020  0.89920  0.92040  Biso   1.000  H 
  H124     1.0000 0.70980  0.89920  0.57960  Biso   1.000  H 
  H125     1.0000 0.20980  0.60080  0.07960  Biso   1.000  H 
  H126     1.0000 0.79020  0.60080  0.42040  Biso   1.000  H 
  H127     1.0000 0.70980  0.10080  0.07960  Biso   1.000  H 
  H128     1.0000 0.29020  0.10080  0.42040  Biso   1.000  H 
  H129     1.0000 0.68470  0.41020  0.89660  Biso   1.000  H 
  H130     1.0000 0.31530  0.41020  0.60340  Biso   1.000  H 
  H131     1.0000 0.18470  0.91020  0.89660  Biso   1.000  H 
  H132     1.0000 0.81530  0.91020  0.60340  Biso   1.000  H 
  H133     1.0000 0.31530  0.58980  0.10340  Biso   1.000  H 
  H134     1.0000 0.68470  0.58980  0.39660  Biso   1.000  H 
  H135     1.0000 0.81530  0.08980  0.10340  Biso   1.000  H 
  H136     1.0000 0.18470  0.08980  0.39660  Biso   1.000  H 
  C201     1.0000 0.73330  0.40650  0.82133  Biso   1.000  C 
  C202     1.0000 0.26670  0.40650  0.67867  Biso   1.000  C 
  C203     1.0000 0.23330  0.90650  0.82133  Biso   1.000  C 
  C204     1.0000 0.76670  0.90650  0.67867  Biso   1.000  C 
  C205     1.0000 0.26670  0.59350  0.17867  Biso   1.000  C 
  C206     1.0000 0.73330  0.59350  0.32133  Biso   1.000  C 
  C207     1.0000 0.76670  0.09350  0.17867  Biso   1.000  C 
  C208     1.0000 0.23330  0.09350  0.32133  Biso   1.000  C 
  H137     1.0000 0.77950  0.38160  0.81190  Biso   1.000  H 
  H138     1.0000 0.22050  0.38160  0.68810  Biso   1.000  H 
  H139     1.0000 0.27950  0.88160  0.81190  Biso   1.000  H 
  H140     1.0000 0.72050  0.88160  0.68810  Biso   1.000  H 
  H141     1.0000 0.22050  0.61840  0.18810  Biso   1.000  H 
  H142     1.0000 0.77950  0.61840  0.31190  Biso   1.000  H 
  H143     1.0000 0.72050  0.11840  0.18810  Biso   1.000  H 
  H144     1.0000 0.27950  0.11840  0.31190  Biso   1.000  H 
  H145     1.0000 0.74940  0.45190  0.82190  Biso   1.000  H 
  H146     1.0000 0.25060  0.45190  0.67810  Biso   1.000  H 
  H147     1.0000 0.24940  0.95190  0.82190  Biso   1.000  H 
  H148     1.0000 0.75060  0.95190  0.67810  Biso   1.000  H 
  H149     1.0000 0.25060  0.54810  0.17810  Biso   1.000  H 
  H150     1.0000 0.74940  0.54810  0.32190  Biso   1.000  H 
  H151     1.0000 0.75060  0.04810  0.17810  Biso   1.000  H 
  H152     1.0000 0.24940  0.04810  0.32190  Biso   1.000  H 
  C209     1.0000 0.64290  0.39550  0.76790  Biso   1.000  C 
  C210     1.0000 0.35710  0.39550  0.73210  Biso   1.000  C 
  C211     1.0000 0.14290  0.89550  0.76790  Biso   1.000  C 
  C212     1.0000 0.85710  0.89550  0.73210  Biso   1.000  C 
  C213     1.0000 0.35710  0.60450  0.23210  Biso   1.000  C 
  C214     1.0000 0.64290  0.60450  0.26790  Biso   1.000  C 
  C215     1.0000 0.85710  0.10450  0.23210  Biso   1.000  C 
  C216     1.0000 0.14290  0.10450  0.26790  Biso   1.000  C 
  H153     1.0000 0.59820  0.42450  0.77420  Biso   1.000  H 
  H154     1.0000 0.40180  0.42450  0.72580  Biso   1.000  H 
  H155     1.0000 0.09820  0.92450  0.77420  Biso   1.000  H 
  H156     1.0000 0.90180  0.92450  0.72580  Biso   1.000  H 
  H157     1.0000 0.40180  0.57550  0.22580  Biso   1.000  H 
  H158     1.0000 0.59820  0.57550  0.27420  Biso   1.000  H 
  H159     1.0000 0.90180  0.07550  0.22580  Biso   1.000  H 
  H160     1.0000 0.09820  0.07550  0.27420  Biso   1.000  H 
  H161     1.0000 0.62320  0.35150  0.77060  Biso   1.000  H 
  H162     1.0000 0.37680  0.35150  0.72940  Biso   1.000  H 
  H163     1.0000 0.12320  0.85150  0.77060  Biso   1.000  H 
  H164     1.0000 0.87680  0.85150  0.72940  Biso   1.000  H 
  H165     1.0000 0.37680  0.64850  0.22940  Biso   1.000  H 
  H166     1.0000 0.62320  0.64850  0.27060  Biso   1.000  H 
  H167     1.0000 0.87680  0.14850  0.22940  Biso   1.000  H 
  H168     1.0000 0.12320  0.14850  0.27060  Biso   1.000  H 
  C217     1.0000 0.64720  0.40680  0.70000  Biso   1.000  C 
  C218     1.0000 0.35280  0.40680  0.80000  Biso   1.000  C 
  C219     1.0000 0.14720  0.90680  0.70000  Biso   1.000  C 
  C220     1.0000 0.85280  0.90680  0.80000  Biso   1.000  C 
  C221     1.0000 0.35280  0.59320  0.30000  Biso   1.000  C 
  C222     1.0000 0.64720  0.59320  0.20000  Biso   1.000  C 
  C223     1.0000 0.85280  0.09320  0.30000  Biso   1.000  C 
  C224     1.0000 0.14720  0.09320  0.20000  Biso   1.000  C 
  H169     1.0000 0.66690  0.45090  0.69720  Biso   1.000  H 
  H170     1.0000 0.33310  0.45090  0.80280  Biso   1.000  H 
  H171     1.0000 0.16690  0.95090  0.69720  Biso   1.000  H 
  H172     1.0000 0.83310  0.95090  0.80280  Biso   1.000  H 
  H173     1.0000 0.33310  0.54910  0.30280  Biso   1.000  H 
  H174     1.0000 0.66690  0.54910  0.19720  Biso   1.000  H 
  H175     1.0000 0.83310  0.04910  0.30280  Biso   1.000  H 
  H176     1.0000 0.16690  0.04910  0.19720  Biso   1.000  H 
  H177     1.0000 0.69180  0.37780  0.69350  Biso   1.000  H 
  H178     1.0000 0.30820  0.37780  0.80650  Biso   1.000  H 
  H179     1.0000 0.19180  0.87780  0.69350  Biso   1.000  H 
  H180     1.0000 0.80820  0.87780  0.80650  Biso   1.000  H 
  H181     1.0000 0.30820  0.62220  0.30650  Biso   1.000  H 
  H182     1.0000 0.69180  0.62220  0.19350  Biso   1.000  H 
  H183     1.0000 0.80820  0.12220  0.30650  Biso   1.000  H 
  H184     1.0000 0.19180  0.12220  0.19350  Biso   1.000  H 
  C225     1.0000 0.55600  0.39570  0.64650  Biso   1.000  C 
  C226     1.0000 0.44400  0.39570  0.85350  Biso   1.000  C 
  C227     1.0000 0.05600  0.89570  0.64650  Biso   1.000  C 
  C228     1.0000 0.94400  0.89570  0.85350  Biso   1.000  C 
  C229     1.0000 0.44400  0.60430  0.35350  Biso   1.000  C 
  C230     1.0000 0.55600  0.60430  0.14650  Biso   1.000  C 
  C231     1.0000 0.94400  0.10430  0.35350  Biso   1.000  C 
  C232     1.0000 0.05600  0.10430  0.14650  Biso   1.000  C 
  H185     1.0000 0.51130  0.42360  0.65430  Biso   1.000  H 
  H186     1.0000 0.48870  0.42360  0.84570  Biso   1.000  H 
  H187     1.0000 0.01130  0.92360  0.65430  Biso   1.000  H 
  H188     1.0000 0.98870  0.92360  0.84570  Biso   1.000  H 
  H189     1.0000 0.48870  0.57640  0.34570  Biso   1.000  H 
  H190     1.0000 0.51130  0.57640  0.15430  Biso   1.000  H 
  H191     1.0000 0.98870  0.07640  0.34570  Biso   1.000  H 
  H192     1.0000 0.01130  0.07640  0.15430  Biso   1.000  H 
  H193     1.0000 0.56100  0.40850  0.60550  Biso   1.000  H 
  H194     1.0000 0.43900  0.40850  0.89450  Biso   1.000  H 
  H195     1.0000 0.06100  0.90850  0.60550  Biso   1.000  H 
  H196     1.0000 0.93900  0.90850  0.89450  Biso   1.000  H 
  H197     1.0000 0.43900  0.59150  0.39450  Biso   1.000  H 
  H198     1.0000 0.56100  0.59150  0.10550  Biso   1.000  H 
  H199     1.0000 0.93900  0.09150  0.39450  Biso   1.000  H 
  H200     1.0000 0.06100  0.09150  0.10550  Biso   1.000  H 
  C233     1.0000 0.52200  0.32620  0.64070  Biso   1.000  C 
  C234     1.0000 0.47800  0.32620  0.85930  Biso   1.000  C 
  C235     1.0000 0.02200  0.82620  0.64070  Biso   1.000  C 
  C236     1.0000 0.97800  0.82620  0.85930  Biso   1.000  C 
  C237     1.0000 0.47800  0.67380  0.35930  Biso   1.000  C 
  C238     1.0000 0.52200  0.67380  0.14070  Biso   1.000  C 
  C239     1.0000 0.97800  0.17380  0.35930  Biso   1.000  C 
  C240     1.0000 0.02200  0.17380  0.14070  Biso   1.000  C 
  H201     1.0000 0.56860  0.29750  0.63810  Biso   1.000  H 
  H202     1.0000 0.43140  0.29750  0.86190  Biso   1.000  H 
  H203     1.0000 0.06860  0.79750  0.63810  Biso   1.000  H 
  H204     1.0000 0.93140  0.79750  0.86190  Biso   1.000  H 
  H205     1.0000 0.43140  0.70250  0.36190  Biso   1.000  H 
  H206     1.0000 0.56860  0.70250  0.13810  Biso   1.000  H 
  H207     1.0000 0.93140  0.20250  0.36190  Biso   1.000  H 
  H208     1.0000 0.06860  0.20250  0.13810  Biso   1.000  H 
  H209     1.0000 0.46930  0.32180  0.60240  Biso   1.000  H 
  H210     1.0000 0.53070  0.32180  0.89760  Biso   1.000  H 
  H211     1.0000 0.96930  0.82180  0.60240  Biso   1.000  H 
  H212     1.0000 0.03070  0.82180  0.89760  Biso   1.000  H 
  H213     1.0000 0.53070  0.67820  0.39760  Biso   1.000  H 
  H214     1.0000 0.46930  0.67820  0.10240  Biso   1.000  H 
  H215     1.0000 0.03070  0.17820  0.39760  Biso   1.000  H 
  H216     1.0000 0.96930  0.17820  0.10240  Biso   1.000  H 
  H217     1.0000 0.50670  0.31540  0.67810  Biso   1.000  H 
  H218     1.0000 0.49330  0.31540  0.82190  Biso   1.000  H 
  H219     1.0000 0.00670  0.81540  0.67810  Biso   1.000  H 
  H220     1.0000 0.99330  0.81540  0.82190  Biso   1.000  H 
  H221     1.0000 0.49330  0.68460  0.32190  Biso   1.000  H 
  H222     1.0000 0.50670  0.68460  0.17810  Biso   1.000  H 
  H223     1.0000 0.99330  0.18460  0.32190  Biso   1.000  H 
  H224     1.0000 0.00670  0.18460  0.17810  Biso   1.000  H 
  Cd1      1.0000 0.49382  0.02142  0.56598  Biso   1.000  Cd
  Cd2      1.0000 0.50618  0.02142  0.93402  Biso   1.000  Cd
  Cd3      1.0000 0.99382  0.52142  0.56598  Biso   1.000  Cd
  Cd4      1.0000 0.00618  0.52142  0.93402  Biso   1.000  Cd
  Cd5      1.0000 0.50618  0.97858  0.43402  Biso   1.000  Cd
  Cd6      1.0000 0.49382  0.97858  0.06598  Biso   1.000  Cd
  Cd7      1.0000 0.00618  0.47858  0.43402  Biso   1.000  Cd
  Cd8      1.0000 0.99382  0.47858  0.06598  Biso   1.000  Cd
  N1       1.0000 0.55920  0.05600  0.66643  Biso   1.000  N 
  N2       1.0000 0.44080  0.05600  0.83357  Biso   1.000  N 
  N3       1.0000 0.05920  0.55600  0.66643  Biso   1.000  N 
  N4       1.0000 0.94080  0.55600  0.83357  Biso   1.000  N 
  N5       1.0000 0.44080  0.94400  0.33357  Biso   1.000  N 
  N6       1.0000 0.55920  0.94400  0.16643  Biso   1.000  N 
  N7       1.0000 0.94080  0.44400  0.33357  Biso   1.000  N 
  N8       1.0000 0.05920  0.44400  0.16643  Biso   1.000  N 
  O1       1.0000 0.01963  0.41602  0.58169  Biso   1.000  O 
  O2       1.0000 0.98037  0.41602  0.91831  Biso   1.000  O 
  O3       1.0000 0.51963  0.91602  0.58169  Biso   1.000  O 
  O4       1.0000 0.48037  0.91602  0.91831  Biso   1.000  O 
  O5       1.0000 0.98037  0.58398  0.41831  Biso   1.000  O 
  O6       1.0000 0.01963  0.58398  0.08169  Biso   1.000  O 
  O7       1.0000 0.48037  0.08398  0.41831  Biso   1.000  O 
  O8       1.0000 0.51963  0.08398  0.08169  Biso   1.000  O 
  O9       1.0000 0.02867  0.38410  0.48615  Biso   1.000  O 
  O10      1.0000 0.97133  0.38410  0.01385  Biso   1.000  O 
  O11      1.0000 0.52867  0.88410  0.48615  Biso   1.000  O 
  O12      1.0000 0.47133  0.88410  0.01385  Biso   1.000  O 
  O13      1.0000 0.97133  0.61590  0.51385  Biso   1.000  O 
  O14      1.0000 0.02867  0.61590  0.98615  Biso   1.000  O 
  O15      1.0000 0.47133  0.11590  0.51385  Biso   1.000  O 
  O16      1.0000 0.52867  0.11590  0.98615  Biso   1.000  O 
  O17      1.0000 0.12580  0.06092  0.60545  Biso   1.000  O 
  O18      1.0000 0.87420  0.06092  0.89455  Biso   1.000  O 
  O19      1.0000 0.62580  0.56092  0.60545  Biso   1.000  O 
  O20      1.0000 0.37420  0.56092  0.89455  Biso   1.000  O 
  O21      1.0000 0.87420  0.93908  0.39455  Biso   1.000  O 
  O22      1.0000 0.12580  0.93908  0.10545  Biso   1.000  O 
  O23      1.0000 0.37420  0.43908  0.39455  Biso   1.000  O 
  O24      1.0000 0.62580  0.43908  0.10545  Biso   1.000  O 
  O25      1.0000 0.10111  0.09580  0.70653  Biso   1.000  O 
  O26      1.0000 0.89889  0.09580  0.79347  Biso   1.000  O 
  O27      1.0000 0.60111  0.59580  0.70653  Biso   1.000  O 
  O28      1.0000 0.39889  0.59580  0.79347  Biso   1.000  O 
  O29      1.0000 0.89889  0.90420  0.29347  Biso   1.000  O 
  O30      1.0000 0.10111  0.90420  0.20653  Biso   1.000  O 
  O31      1.0000 0.39889  0.40420  0.29347  Biso   1.000  O 
  O32      1.0000 0.60111  0.40420  0.20653  Biso   1.000  O 
  O33      1.0000 0.65558  0.99562  0.45833  Biso   1.000  O 
  O34      1.0000 0.34442  0.99562  0.04167  Biso   1.000  O 
  O35      1.0000 0.15558  0.49562  0.45833  Biso   1.000  O 
  O36      1.0000 0.84442  0.49562  0.04167  Biso   1.000  O 
  O37      1.0000 0.34442  0.00438  0.54167  Biso   1.000  O 
  O38      1.0000 0.65558  0.00438  0.95833  Biso   1.000  O 
  O39      1.0000 0.84442  0.50438  0.54167  Biso   1.000  O 
  O40      1.0000 0.15558  0.50438  0.95833  Biso   1.000  O 
  O41      1.0000 0.63086  0.02505  0.54811  Biso   1.000  O 
  O42      1.0000 0.36914  0.02505  0.95189  Biso   1.000  O 
  O43      1.0000 0.13086  0.52505  0.54811  Biso   1.000  O 
  O44      1.0000 0.86914  0.52505  0.95189  Biso   1.000  O 
  O45      1.0000 0.36914  0.97495  0.45189  Biso   1.000  O 
  O46      1.0000 0.63086  0.97495  0.04811  Biso   1.000  O 
  O47      1.0000 0.86914  0.47495  0.45189  Biso   1.000  O 
  O48      1.0000 0.13086  0.47495  0.04811  Biso   1.000  O 
  O49      1.0000 0.71910  0.31917  0.88665  Biso   1.000  O 
  O50      1.0000 0.28090  0.31917  0.61335  Biso   1.000  O 
  O51      1.0000 0.21910  0.81917  0.88665  Biso   1.000  O 
  O52      1.0000 0.78090  0.81917  0.61335  Biso   1.000  O 
  O53      1.0000 0.28090  0.68083  0.11335  Biso   1.000  O 
  O54      1.0000 0.71910  0.68083  0.38665  Biso   1.000  O 
  O55      1.0000 0.78090  0.18083  0.11335  Biso   1.000  O 
  O56      1.0000 0.21910  0.18083  0.38665  Biso   1.000  O 
  S1       1.0000 0.07468  0.09701  0.63696  Biso   1.000  S 
  S2       1.0000 0.92532  0.09701  0.86304  Biso   1.000  S 
  S3       1.0000 0.57468  0.59701  0.63696  Biso   1.000  S 
  S4       1.0000 0.42532  0.59701  0.86304  Biso   1.000  S 
  S5       1.0000 0.92532  0.90299  0.36304  Biso   1.000  S 
  S6       1.0000 0.07468  0.90299  0.13696  Biso   1.000  S 
  S7       1.0000 0.42532  0.40299  0.36304  Biso   1.000  S 
  S8       1.0000 0.57468  0.40299  0.13696  Biso   1.000  S 
