data_image0
_cell_length_a       12.8753
_cell_length_b       12.8676
_cell_length_c       8.3058
_cell_angle_alpha    90
_cell_angle_beta     106.17
_cell_angle_gamma    90

_symmetry_space_group_name_H-M    "P 1"
_symmetry_int_tables_number       1

loop_
  _symmetry_equiv_pos_as_xyz
  'x, y, z'

loop_
  _atom_site_label
  _atom_site_occupancy
  _atom_site_fract_x
  _atom_site_fract_y
  _atom_site_fract_z
  _atom_site_thermal_displace_type
  _atom_site_B_iso_or_equiv
  _atom_site_type_symbol
  C1       1.0000 0.79164  0.62341  0.91500  Biso   1.000  C 
  C2       1.0000 0.20836  0.12341  0.58500  Biso   1.000  C 
  C3       1.0000 0.20836  0.37659  0.08500  Biso   1.000  C 
  C4       1.0000 0.79164  0.87659  0.41500  Biso   1.000  C 
  C5       1.0000 0.70541  0.63629  0.77680  Biso   1.000  C 
  C6       1.0000 0.29459  0.13629  0.72320  Biso   1.000  C 
  C7       1.0000 0.29459  0.36371  0.22320  Biso   1.000  C 
  C8       1.0000 0.70541  0.86371  0.27680  Biso   1.000  C 
  H1       1.0000 0.71180  0.64350  0.66860  Biso   1.000  H 
  H2       1.0000 0.28820  0.14350  0.83140  Biso   1.000  H 
  H3       1.0000 0.28820  0.35650  0.33140  Biso   1.000  H 
  H4       1.0000 0.71180  0.85650  0.16860  Biso   1.000  H 
  C9       1.0000 0.60536  0.63746  0.81600  Biso   1.000  C 
  C10      1.0000 0.39464  0.13746  0.68400  Biso   1.000  C 
  C11      1.0000 0.39464  0.36254  0.18400  Biso   1.000  C 
  C12      1.0000 0.60536  0.86254  0.31600  Biso   1.000  C 
  H5       1.0000 0.53910  0.64590  0.73610  Biso   1.000  H 
  H6       1.0000 0.46090  0.14590  0.76390  Biso   1.000  H 
  H7       1.0000 0.46090  0.35410  0.26390  Biso   1.000  H 
  H8       1.0000 0.53910  0.85410  0.23610  Biso   1.000  H 
  C13      1.0000 0.61567  0.62500  0.98200  Biso   1.000  C 
  C14      1.0000 0.38433  0.12500  0.51800  Biso   1.000  C 
  C15      1.0000 0.38433  0.37500  0.01800  Biso   1.000  C 
  C16      1.0000 0.61567  0.87500  0.48200  Biso   1.000  C 
  C17      1.0000 0.90590  0.62418  0.92590  Biso   1.000  C 
  C18      1.0000 0.09410  0.12418  0.57410  Biso   1.000  C 
  C19      1.0000 0.09410  0.37582  0.07410  Biso   1.000  C 
  C20      1.0000 0.90590  0.87582  0.42590  Biso   1.000  C 
  C21      1.0000 0.99386  0.65217  0.05260  Biso   1.000  C 
  C22      1.0000 0.00614  0.15217  0.44740  Biso   1.000  C 
  C23      1.0000 0.00614  0.34783  0.94740  Biso   1.000  C 
  C24      1.0000 0.99386  0.84783  0.55260  Biso   1.000  C 
  H9       1.0000 0.99220  0.67450  0.15830  Biso   1.000  H 
  H10      1.0000 0.00780  0.17450  0.34170  Biso   1.000  H 
  H11      1.0000 0.00780  0.32550  0.84170  Biso   1.000  H 
  H12      1.0000 0.99220  0.82550  0.65830  Biso   1.000  H 
  C25      1.0000 0.05304  0.60887  0.84310  Biso   1.000  C 
  C26      1.0000 0.94696  0.10887  0.65690  Biso   1.000  C 
  C27      1.0000 0.94696  0.39113  0.15690  Biso   1.000  C 
  C28      1.0000 0.05304  0.89113  0.34310  Biso   1.000  C 
  H13      1.0000 0.09850  0.59530  0.77610  Biso   1.000  H 
  H14      1.0000 0.90150  0.09530  0.72390  Biso   1.000  H 
  H15      1.0000 0.90150  0.40470  0.22390  Biso   1.000  H 
  H16      1.0000 0.09850  0.90470  0.27610  Biso   1.000  H 
  C29      1.0000 0.53015  0.62552  0.06520  Biso   1.000  C 
  C30      1.0000 0.46985  0.12552  0.43480  Biso   1.000  C 
  C31      1.0000 0.46985  0.37448  0.93480  Biso   1.000  C 
  C32      1.0000 0.53015  0.87448  0.56520  Biso   1.000  C 
  C33      1.0000 0.42569  0.65800  0.00800  Biso   1.000  C 
  C34      1.0000 0.57431  0.15800  0.49200  Biso   1.000  C 
  C35      1.0000 0.57431  0.34200  0.99200  Biso   1.000  C 
  C36      1.0000 0.42569  0.84200  0.50800  Biso   1.000  C 
  H17      1.0000 0.39380  0.68520  0.90210  Biso   1.000  H 
  H18      1.0000 0.60620  0.18520  0.59790  Biso   1.000  H 
  H19      1.0000 0.60620  0.31480  0.09790  Biso   1.000  H 
  H20      1.0000 0.39380  0.81480  0.40210  Biso   1.000  H 
  C37      1.0000 0.44780  0.60383  0.26120  Biso   1.000  C 
  C38      1.0000 0.55220  0.10383  0.23880  Biso   1.000  C 
  C39      1.0000 0.55220  0.39617  0.73880  Biso   1.000  C 
  C40      1.0000 0.44780  0.89617  0.76120  Biso   1.000  C 
  H21      1.0000 0.43520  0.58610  0.36270  Biso   1.000  H 
  H22      1.0000 0.56480  0.08610  0.13730  Biso   1.000  H 
  H23      1.0000 0.56480  0.41390  0.63730  Biso   1.000  H 
  H24      1.0000 0.43520  0.91390  0.86270  Biso   1.000  H 
  N1       1.0000 0.08587  0.64216  0.99950  Biso   1.000  N 
  N2       1.0000 0.91413  0.14216  0.50050  Biso   1.000  N 
  N3       1.0000 0.91413  0.35784  0.00050  Biso   1.000  N 
  N4       1.0000 0.08587  0.85784  0.49950  Biso   1.000  N 
  N5       1.0000 0.94611  0.59731  0.79440  Biso   1.000  N 
  N6       1.0000 0.05389  0.09731  0.70560  Biso   1.000  N 
  N7       1.0000 0.05389  0.40269  0.20560  Biso   1.000  N 
  N8       1.0000 0.94611  0.90269  0.29440  Biso   1.000  N 
  H25      1.0000 0.90920  0.56260  0.69270  Biso   1.000  H 
  H26      1.0000 0.09080  0.06260  0.80730  Biso   1.000  H 
  H27      1.0000 0.09080  0.43740  0.30730  Biso   1.000  H 
  H28      1.0000 0.90920  0.93740  0.19270  Biso   1.000  H 
  N9       1.0000 0.37475  0.64418  0.13210  Biso   1.000  N 
  N10      1.0000 0.62525  0.14418  0.36790  Biso   1.000  N 
  N11      1.0000 0.62525  0.35582  0.86790  Biso   1.000  N 
  N12      1.0000 0.37475  0.85582  0.63210  Biso   1.000  N 
  N13      1.0000 0.54205  0.59193  0.22610  Biso   1.000  N 
  N14      1.0000 0.45795  0.09193  0.27390  Biso   1.000  N 
  N15      1.0000 0.45795  0.40807  0.77390  Biso   1.000  N 
  N16      1.0000 0.54205  0.90807  0.72610  Biso   1.000  N 
  H29      1.0000 0.59880  0.55790  0.29450  Biso   1.000  H 
  H30      1.0000 0.40120  0.05790  0.20550  Biso   1.000  H 
  H31      1.0000 0.40120  0.44210  0.70550  Biso   1.000  H 
  H32      1.0000 0.59880  0.94210  0.79450  Biso   1.000  H 
  O1       1.0000 0.22278  0.83297  0.87070  Biso   1.000  O 
  O2       1.0000 0.77722  0.33297  0.62930  Biso   1.000  O 
  O3       1.0000 0.77722  0.16703  0.12930  Biso   1.000  O 
  O4       1.0000 0.22278  0.66703  0.37070  Biso   1.000  O 
  O5       1.0000 0.22898  0.84060  0.15695  Biso   1.000  O 
  O6       1.0000 0.77102  0.34060  0.34305  Biso   1.000  O 
  O7       1.0000 0.77102  0.15940  0.84305  Biso   1.000  O 
  O8       1.0000 0.22898  0.65940  0.65695  Biso   1.000  O 
  O9       1.0000 0.34106  0.95368  0.04940  Biso   1.000  O 
  O10      1.0000 0.65894  0.45368  0.45060  Biso   1.000  O 
  O11      1.0000 0.65894  0.04632  0.95060  Biso   1.000  O 
  O12      1.0000 0.34106  0.54632  0.54940  Biso   1.000  O 
  O13      1.0000 0.15000  0.98109  0.98110  Biso   1.000  O 
  O14      1.0000 0.85000  0.48109  0.51890  Biso   1.000  O 
  O15      1.0000 0.85000  0.01891  0.01890  Biso   1.000  O 
  O16      1.0000 0.15000  0.51891  0.48110  Biso   1.000  O 
  S1       1.0000 0.74977  0.61106  0.09389  Biso   1.000  S 
  S2       1.0000 0.25023  0.11106  0.40611  Biso   1.000  S 
  S3       1.0000 0.25023  0.38894  0.90611  Biso   1.000  S 
  S4       1.0000 0.74977  0.88894  0.59389  Biso   1.000  S 
  S5       1.0000 0.23560  0.90584  0.01267  Biso   1.000  S 
  S6       1.0000 0.76440  0.40584  0.48733  Biso   1.000  S 
  S7       1.0000 0.76440  0.09416  0.98733  Biso   1.000  S 
  S8       1.0000 0.23560  0.59416  0.51267  Biso   1.000  S 
  Zn1      1.0000 0.22878  0.68693  0.13737  Biso   1.000  Zn
  Zn2      1.0000 0.77122  0.18693  0.36263  Biso   1.000  Zn
  Zn3      1.0000 0.77122  0.31307  0.86263  Biso   1.000  Zn
  Zn4      1.0000 0.22878  0.81307  0.63737  Biso   1.000  Zn
