data_image0
_cell_length_a       21.2528
_cell_length_b       21.2528
_cell_length_c       15.071
_cell_angle_alpha    90
_cell_angle_beta     90
_cell_angle_gamma    120

_symmetry_space_group_name_H-M    "P 1"
_symmetry_int_tables_number       1

loop_
  _symmetry_equiv_pos_as_xyz
  'x, y, z'

loop_
  _atom_site_label
  _atom_site_occupancy
  _atom_site_fract_x
  _atom_site_fract_y
  _atom_site_fract_z
  _atom_site_thermal_displace_type
  _atom_site_B_iso_or_equiv
  _atom_site_type_symbol
  Mn1      1.0000 0.67495  0.32505  0.91670  Biso   1.000  Mn
  O1       1.0000 0.57430  0.22920  0.89043  Biso   1.000  O 
  C1       1.0000 0.51660  0.19610  0.92803  Biso   1.000  C 
  C2       1.0000 0.45140  0.13650  0.87923  Biso   1.000  C 
  C3       1.0000 0.38640  0.10460  0.91693  Biso   1.000  C 
  C4       1.0000 0.32440  0.05210  0.87153  Biso   1.000  C 
  H1       1.0000 0.27870  0.02880  0.89933  Biso   1.000  H 
  C5       1.0000 0.33210  0.03520  0.78403  Biso   1.000  C 
  C6       1.0000 0.40050  0.06720  0.74613  Biso   1.000  C 
  H2       1.0000 0.40620  0.05380  0.68843  Biso   1.000  H 
  C7       1.0000 0.45930  0.11750  0.79103  Biso   1.000  C 
  H3       1.0000 0.50530  0.14000  0.76403  Biso   1.000  H 
  C8       1.0000 0.26540  0.97860  0.72773  Biso   1.000  C 
  C9       1.0000 0.28020  0.91990  0.69083  Biso   1.000  C 
  C10      1.0000 0.31690  0.89480  0.74263  Biso   1.000  C 
  H4       1.0000 0.33100  0.91380  0.80013  Biso   1.000  H 
  C11      1.0000 0.33370  0.84360  0.71453  Biso   1.000  C 
  H5       1.0000 0.36090  0.83020  0.75113  Biso   1.000  H 
  C12      1.0000 0.31030  0.81160  0.63143  Biso   1.000  C 
  C13      1.0000 0.27080  0.83440  0.57923  Biso   1.000  C 
  H6       1.0000 0.25460  0.81320  0.52303  Biso   1.000  H 
  C14      1.0000 0.25470  0.88690  0.60713  Biso   1.000  C 
  H7       1.0000 0.22740  0.90040  0.57093  Biso   1.000  H 
  C15      1.0000 0.32920  0.75780  0.59593  Biso   1.000  C 
  O2       1.0000 0.36810  0.74430  0.64603  Biso   1.000  O 
  Co1      1.0000 0.43380  0.71690  0.58333  Biso   1.000  Co
  Mn2      1.0000 0.32505  0.67495  0.41670  Biso   1.000  Mn
  Co2      1.0000 0.28310  0.56620  0.25000  Biso   1.000  Co
  Mn3      1.0000 0.34990  0.67495  0.08337  Biso   1.000  Mn
  O3       1.0000 0.34510  0.57430  0.05710  Biso   1.000  O 
  C16      1.0000 0.32050  0.51660  0.09470  Biso   1.000  C 
  C17      1.0000 0.31490  0.45140  0.04590  Biso   1.000  C 
  C18      1.0000 0.28180  0.38640  0.08360  Biso   1.000  C 
  C19      1.0000 0.27230  0.32440  0.03820  Biso   1.000  C 
  H8       1.0000 0.24990  0.27870  0.06600  Biso   1.000  H 
  C20      1.0000 0.29690  0.33210  0.95070  Biso   1.000  C 
  C21      1.0000 0.33330  0.40050  0.91280  Biso   1.000  C 
  C22      1.0000 0.34180  0.45930  0.95770  Biso   1.000  C 
  H9       1.0000 0.36530  0.50530  0.93070  Biso   1.000  H 
  H10      1.0000 0.35240  0.40620  0.85510  Biso   1.000  H 
  C23      1.0000 0.28680  0.26540  0.89440  Biso   1.000  C 
  C24      1.0000 0.25520  0.19480  0.95000  Biso   1.000  C 
  F1       1.0000 0.29680  0.20340  0.01890  Biso   1.000  F 
  F2       1.0000 0.25160  0.14110  0.89980  Biso   1.000  F 
  F3       1.0000 0.18750  0.17350  0.97820  Biso   1.000  F 
  C25      1.0000 0.36030  0.28020  0.85750  Biso   1.000  C 
  C26      1.0000 0.42210  0.31690  0.90930  Biso   1.000  C 
  H11      1.0000 0.41720  0.33100  0.96680  Biso   1.000  H 
  C27      1.0000 0.49010  0.33370  0.88120  Biso   1.000  C 
  H12      1.0000 0.53070  0.36090  0.91780  Biso   1.000  H 
  C28      1.0000 0.49870  0.31030  0.79810  Biso   1.000  C 
  C29      1.0000 0.43640  0.27080  0.74590  Biso   1.000  C 
  H13      1.0000 0.44140  0.25460  0.68970  Biso   1.000  H 
  C30      1.0000 0.36780  0.25470  0.77380  Biso   1.000  C 
  H14      1.0000 0.32700  0.22740  0.73760  Biso   1.000  H 
  C31      1.0000 0.57140  0.32920  0.76260  Biso   1.000  C 
  O4       1.0000 0.62380  0.36810  0.81270  Biso   1.000  O 
  Co3      1.0000 0.71690  0.43380  0.75000  Biso   1.000  Co
  Mn4      1.0000 0.65010  0.32505  0.58337  Biso   1.000  Mn
  O5       1.0000 0.57500  0.26620  0.47937  Biso   1.000  O 
  C32      1.0000 0.57140  0.24220  0.40407  Biso   1.000  C 
  C33      1.0000 0.49870  0.18840  0.36857  Biso   1.000  C 
  C34      1.0000 0.43640  0.16560  0.42077  Biso   1.000  C 
  H15      1.0000 0.44140  0.18680  0.47697  Biso   1.000  H 
  C35      1.0000 0.36780  0.11310  0.39287  Biso   1.000  C 
  H16      1.0000 0.32700  0.09960  0.42907  Biso   1.000  H 
  C36      1.0000 0.36030  0.08010  0.30917  Biso   1.000  C 
  C37      1.0000 0.42210  0.10520  0.25737  Biso   1.000  C 
  H17      1.0000 0.41720  0.08620  0.19987  Biso   1.000  H 
  C38      1.0000 0.49010  0.15640  0.28547  Biso   1.000  C 
  H18      1.0000 0.53070  0.16980  0.24887  Biso   1.000  H 
  C39      1.0000 0.28680  0.02140  0.27227  Biso   1.000  C 
  C40      1.0000 0.25520  0.06040  0.21667  Biso   1.000  C 
  F4       1.0000 0.29680  0.09340  0.14777  Biso   1.000  F 
  F5       1.0000 0.25160  0.11050  0.26687  Biso   1.000  F 
  F6       1.0000 0.18750  0.01400  0.18847  Biso   1.000  F 
  C41      1.0000 0.23140  0.97630  0.34617  Biso   1.000  C 
  F7       1.0000 0.20530  0.01280  0.38867  Biso   1.000  F 
  F8       1.0000 0.26190  0.95390  0.40827  Biso   1.000  F 
  F9       1.0000 0.17410  0.91700  0.31037  Biso   1.000  F 
  C42      1.0000 0.29690  0.96480  0.21597  Biso   1.000  C 
  C43      1.0000 0.27230  0.94790  0.12847  Biso   1.000  C 
  H19      1.0000 0.24990  0.97120  0.10067  Biso   1.000  H 
  C44      1.0000 0.28180  0.89540  0.08307  Biso   1.000  C 
  H20      1.0000 0.26430  0.88270  0.02477  Biso   1.000  H 
  C45      1.0000 0.31490  0.86350  0.12077  Biso   1.000  C 
  C46      1.0000 0.32050  0.80390  0.07197  Biso   1.000  C 
  O6       1.0000 0.34510  0.77080  0.10957  Biso   1.000  O 
  O7       1.0000 0.29980  0.79810  0.99217  Biso   1.000  O 
  Co4      1.0000 0.28310  0.71690  0.91667  Biso   1.000  Co
  Mn5      1.0000 0.32505  0.65010  0.75003  Biso   1.000  Mn
  O8       1.0000 0.26620  0.57500  0.85397  Biso   1.000  O 
  C47      1.0000 0.24220  0.57140  0.92927  Biso   1.000  C 
  O9       1.0000 0.25570  0.62380  0.97937  Biso   1.000  O 
  C48      1.0000 0.18840  0.49870  0.96477  Biso   1.000  C 
  C49      1.0000 0.16560  0.43640  0.91257  Biso   1.000  C 
  H21      1.0000 0.18680  0.44140  0.85637  Biso   1.000  H 
  C50      1.0000 0.11310  0.36780  0.94047  Biso   1.000  C 
  H22      1.0000 0.09960  0.32700  0.90427  Biso   1.000  H 
  C51      1.0000 0.08010  0.36030  0.02417  Biso   1.000  C 
  C52      1.0000 0.10520  0.42210  0.07597  Biso   1.000  C 
  C53      1.0000 0.15640  0.49010  0.04787  Biso   1.000  C 
  H23      1.0000 0.16980  0.53070  0.08447  Biso   1.000  H 
  H24      1.0000 0.08620  0.41720  0.13347  Biso   1.000  H 
  C54      1.0000 0.02140  0.28680  0.06107  Biso   1.000  C 
  C55      1.0000 0.06040  0.25520  0.11667  Biso   1.000  C 
  F10      1.0000 0.09340  0.29680  0.18557  Biso   1.000  F 
  F11      1.0000 0.11050  0.25160  0.06647  Biso   1.000  F 
  F12      1.0000 0.01400  0.18750  0.14487  Biso   1.000  F 
  C56      1.0000 0.97630  0.23140  0.98717  Biso   1.000  C 
  F13      1.0000 0.01280  0.20530  0.94467  Biso   1.000  F 
  F14      1.0000 0.91700  0.17410  0.02297  Biso   1.000  F 
  F15      1.0000 0.95390  0.26190  0.92507  Biso   1.000  F 
  C57      1.0000 0.96480  0.29690  0.11737  Biso   1.000  C 
  C58      1.0000 0.94790  0.27230  0.20487  Biso   1.000  C 
  H25      1.0000 0.97120  0.24990  0.23267  Biso   1.000  H 
  C59      1.0000 0.89540  0.28180  0.25027  Biso   1.000  C 
  C60      1.0000 0.86350  0.31490  0.21257  Biso   1.000  C 
  C61      1.0000 0.80390  0.32050  0.26137  Biso   1.000  C 
  O10      1.0000 0.79810  0.29980  0.34117  Biso   1.000  O 
  Co5      1.0000 0.71690  0.28310  0.41667  Biso   1.000  Co
  Mn6      1.0000 0.67495  0.34990  0.25003  Biso   1.000  Mn
  Co6      1.0000 0.56620  0.28310  0.08333  Biso   1.000  Co
  O11      1.0000 0.63190  0.37620  0.02063  Biso   1.000  O 
  C62      1.0000 0.67080  0.42860  0.07073  Biso   1.000  C 
  C63      1.0000 0.68970  0.50130  0.03523  Biso   1.000  C 
  C64      1.0000 0.72920  0.56360  0.08743  Biso   1.000  C 
  H26      1.0000 0.74540  0.55860  0.14363  Biso   1.000  H 
  C65      1.0000 0.74530  0.63220  0.05953  Biso   1.000  C 
  H27      1.0000 0.77260  0.67300  0.09573  Biso   1.000  H 
  C66      1.0000 0.71980  0.63970  0.97583  Biso   1.000  C 
  C67      1.0000 0.68310  0.57790  0.92403  Biso   1.000  C 
  H28      1.0000 0.66900  0.58280  0.86653  Biso   1.000  H 
  C68      1.0000 0.66630  0.50990  0.95213  Biso   1.000  C 
  H29      1.0000 0.63910  0.46930  0.91553  Biso   1.000  H 
  C69      1.0000 0.73460  0.71320  0.93893  Biso   1.000  C 
  C70      1.0000 0.66790  0.70310  0.88263  Biso   1.000  C 
  C71      1.0000 0.67560  0.72770  0.79513  Biso   1.000  C 
  H30      1.0000 0.72130  0.75010  0.76733  Biso   1.000  H 
  C72      1.0000 0.61360  0.71820  0.74973  Biso   1.000  C 
  C73      1.0000 0.54860  0.68510  0.78743  Biso   1.000  C 
  C74      1.0000 0.48340  0.67950  0.73863  Biso   1.000  C 
  O12      1.0000 0.42570  0.65490  0.77623  Biso   1.000  O 
  O13      1.0000 0.49830  0.70020  0.65883  Biso   1.000  O 
  C75      1.0000 0.54070  0.65820  0.87563  Biso   1.000  C 
  H31      1.0000 0.49470  0.63470  0.90263  Biso   1.000  H 
  C76      1.0000 0.59950  0.66670  0.92053  Biso   1.000  C 
  H32      1.0000 0.59380  0.64760  0.97823  Biso   1.000  H 
  H33      1.0000 0.61840  0.73570  0.69143  Biso   1.000  H 
  C77      1.0000 0.80520  0.74480  0.88333  Biso   1.000  C 
  F16      1.0000 0.79660  0.70320  0.81443  Biso   1.000  F 
  F17      1.0000 0.85890  0.74840  0.93353  Biso   1.000  F 
  F18      1.0000 0.82650  0.81250  0.85513  Biso   1.000  F 
  C78      1.0000 0.74490  0.76860  0.01283  Biso   1.000  C 
  F19      1.0000 0.69200  0.73810  0.07493  Biso   1.000  F 
  F20      1.0000 0.80750  0.79470  0.05533  Biso   1.000  F 
  F21      1.0000 0.74290  0.82590  0.97703  Biso   1.000  F 
  O14      1.0000 0.69120  0.42500  0.14603  Biso   1.000  O 
  O15      1.0000 0.63190  0.25570  0.14603  Biso   1.000  O 
  C79      1.0000 0.67080  0.24220  0.09593  Biso   1.000  C 
  C80      1.0000 0.68970  0.18840  0.13143  Biso   1.000  C 
  C81      1.0000 0.66630  0.15640  0.21453  Biso   1.000  C 
  H34      1.0000 0.63910  0.16980  0.25113  Biso   1.000  H 
  C82      1.0000 0.68310  0.10520  0.24263  Biso   1.000  C 
  C83      1.0000 0.71980  0.08010  0.19083  Biso   1.000  C 
  C84      1.0000 0.73460  0.02140  0.22773  Biso   1.000  C 
  C85      1.0000 0.80520  0.06040  0.28333  Biso   1.000  C 
  F22      1.0000 0.79660  0.09340  0.35223  Biso   1.000  F 
  F23      1.0000 0.85890  0.11050  0.23313  Biso   1.000  F 
  F24      1.0000 0.82650  0.01400  0.31153  Biso   1.000  F 
  C86      1.0000 0.74490  0.97630  0.15383  Biso   1.000  C 
  F25      1.0000 0.80750  0.01280  0.11133  Biso   1.000  F 
  F26      1.0000 0.69200  0.95390  0.09173  Biso   1.000  F 
  F27      1.0000 0.74290  0.91700  0.18963  Biso   1.000  F 
  C87      1.0000 0.66790  0.96480  0.28403  Biso   1.000  C 
  C88      1.0000 0.67560  0.94790  0.37153  Biso   1.000  C 
  H35      1.0000 0.72130  0.97120  0.39933  Biso   1.000  H 
  C89      1.0000 0.61360  0.89540  0.41693  Biso   1.000  C 
  C90      1.0000 0.54860  0.86350  0.37923  Biso   1.000  C 
  C91      1.0000 0.48340  0.80390  0.42803  Biso   1.000  C 
  O16      1.0000 0.42570  0.77080  0.39043  Biso   1.000  O 
  O17      1.0000 0.49830  0.79810  0.50783  Biso   1.000  O 
  C92      1.0000 0.54070  0.88250  0.29103  Biso   1.000  C 
  H36      1.0000 0.49470  0.86000  0.26403  Biso   1.000  H 
  C93      1.0000 0.59950  0.93280  0.24613  Biso   1.000  C 
  H37      1.0000 0.59380  0.94620  0.18843  Biso   1.000  H 
  H38      1.0000 0.61840  0.88270  0.47523  Biso   1.000  H 
  C94      1.0000 0.74530  0.11310  0.10713  Biso   1.000  C 
  H39      1.0000 0.77260  0.09960  0.07093  Biso   1.000  H 
  C95      1.0000 0.72920  0.16560  0.07923  Biso   1.000  C 
  H40      1.0000 0.74540  0.18680  0.02303  Biso   1.000  H 
  H41      1.0000 0.66900  0.08620  0.30013  Biso   1.000  H 
  O18      1.0000 0.69120  0.26620  0.02063  Biso   1.000  O 
  O19      1.0000 0.50170  0.29980  0.15883  Biso   1.000  O 
  C96      1.0000 0.51660  0.32050  0.23863  Biso   1.000  C 
  C97      1.0000 0.45140  0.31490  0.28743  Biso   1.000  C 
  C98      1.0000 0.38640  0.28180  0.24973  Biso   1.000  C 
  C99      1.0000 0.32440  0.27230  0.29513  Biso   1.000  C 
  H42      1.0000 0.27870  0.24990  0.26733  Biso   1.000  H 
  C100     1.0000 0.33210  0.29690  0.38263  Biso   1.000  C 
  C101     1.0000 0.40050  0.33330  0.42053  Biso   1.000  C 
  H43      1.0000 0.40620  0.35240  0.47823  Biso   1.000  H 
  C102     1.0000 0.45930  0.34180  0.37563  Biso   1.000  C 
  H44      1.0000 0.50530  0.36530  0.40263  Biso   1.000  H 
  C103     1.0000 0.26540  0.28680  0.43893  Biso   1.000  C 
  C104     1.0000 0.19480  0.25520  0.38333  Biso   1.000  C 
  F28      1.0000 0.20340  0.29680  0.31443  Biso   1.000  F 
  F29      1.0000 0.14110  0.25160  0.43353  Biso   1.000  F 
  F30      1.0000 0.17350  0.18750  0.35513  Biso   1.000  F 
  C105     1.0000 0.28020  0.36030  0.47583  Biso   1.000  C 
  C106     1.0000 0.31690  0.42210  0.42403  Biso   1.000  C 
  C107     1.0000 0.33370  0.49010  0.45213  Biso   1.000  C 
  H45      1.0000 0.36090  0.53070  0.41553  Biso   1.000  H 
  C108     1.0000 0.31030  0.49870  0.53523  Biso   1.000  C 
  C109     1.0000 0.27080  0.43640  0.58743  Biso   1.000  C 
  H46      1.0000 0.25460  0.44140  0.64363  Biso   1.000  H 
  C110     1.0000 0.25470  0.36780  0.55953  Biso   1.000  C 
  H47      1.0000 0.22740  0.32700  0.59573  Biso   1.000  H 
  C111     1.0000 0.32920  0.57140  0.57073  Biso   1.000  C 
  O20      1.0000 0.36810  0.62380  0.52063  Biso   1.000  O 
  O21      1.0000 0.30880  0.57500  0.64603  Biso   1.000  O 
  H48      1.0000 0.33100  0.41720  0.36653  Biso   1.000  H 
  C112     1.0000 0.25510  0.23140  0.51283  Biso   1.000  C 
  F31      1.0000 0.30800  0.26190  0.57493  Biso   1.000  F 
  F32      1.0000 0.19250  0.20530  0.55533  Biso   1.000  F 
  F33      1.0000 0.25710  0.17410  0.47703  Biso   1.000  F 
  H49      1.0000 0.38160  0.26430  0.19143  Biso   1.000  H 
  O22      1.0000 0.57430  0.34510  0.27623  Biso   1.000  O 
  O23      1.0000 0.50170  0.20190  0.00783  Biso   1.000  O 
  O24      1.0000 0.62380  0.25570  0.35397  Biso   1.000  O 
  O25      1.0000 0.73380  0.42500  0.35397  Biso   1.000  O 
  C113     1.0000 0.75780  0.42860  0.42927  Biso   1.000  C 
  O26      1.0000 0.74430  0.37620  0.47937  Biso   1.000  O 
  C114     1.0000 0.81160  0.50130  0.46477  Biso   1.000  C 
  C115     1.0000 0.83440  0.56360  0.41257  Biso   1.000  C 
  H50      1.0000 0.81320  0.55860  0.35637  Biso   1.000  H 
  C116     1.0000 0.88690  0.63220  0.44047  Biso   1.000  C 
  H51      1.0000 0.90040  0.67300  0.40427  Biso   1.000  H 
  C117     1.0000 0.91990  0.63970  0.52417  Biso   1.000  C 
  C118     1.0000 0.89480  0.57790  0.57597  Biso   1.000  C 
  H52      1.0000 0.91380  0.58280  0.63347  Biso   1.000  H 
  C119     1.0000 0.84360  0.50990  0.54787  Biso   1.000  C 
  H53      1.0000 0.83020  0.46930  0.58447  Biso   1.000  H 
  C120     1.0000 0.97860  0.71320  0.56107  Biso   1.000  C 
  C121     1.0000 0.93960  0.74480  0.61667  Biso   1.000  C 
  F34      1.0000 0.90660  0.70320  0.68557  Biso   1.000  F 
  F35      1.0000 0.88950  0.74840  0.56647  Biso   1.000  F 
  F36      1.0000 0.98600  0.81250  0.64487  Biso   1.000  F 
  C122     1.0000 0.02370  0.76860  0.48717  Biso   1.000  C 
  F37      1.0000 0.04610  0.73810  0.42507  Biso   1.000  F 
  F38      1.0000 0.98720  0.79470  0.44467  Biso   1.000  F 
  F39      1.0000 0.08300  0.82590  0.52297  Biso   1.000  F 
  C123     1.0000 0.03520  0.70310  0.61737  Biso   1.000  C 
  C124     1.0000 0.05210  0.72770  0.70487  Biso   1.000  C 
  H54      1.0000 0.02880  0.75010  0.73267  Biso   1.000  H 
  C125     1.0000 0.10460  0.71820  0.75027  Biso   1.000  C 
  C126     1.0000 0.13650  0.68510  0.71257  Biso   1.000  C 
  C127     1.0000 0.19610  0.67950  0.76137  Biso   1.000  C 
  O27      1.0000 0.22920  0.65490  0.72377  Biso   1.000  O 
  O28      1.0000 0.20190  0.70020  0.84117  Biso   1.000  O 
  C128     1.0000 0.11750  0.65820  0.62437  Biso   1.000  C 
  H55      1.0000 0.14000  0.63470  0.59737  Biso   1.000  H 
  C129     1.0000 0.06720  0.66670  0.57947  Biso   1.000  C 
  H56      1.0000 0.05380  0.64760  0.52177  Biso   1.000  H 
  H57      1.0000 0.11730  0.73570  0.80857  Biso   1.000  H 
  O29      1.0000 0.77080  0.34510  0.22377  Biso   1.000  O 
  O30      1.0000 0.70020  0.20190  0.49217  Biso   1.000  O 
  C130     1.0000 0.67950  0.19610  0.57197  Biso   1.000  C 
  O31      1.0000 0.65490  0.22920  0.60957  Biso   1.000  O 
  C131     1.0000 0.68510  0.13650  0.62077  Biso   1.000  C 
  C132     1.0000 0.71820  0.10460  0.58307  Biso   1.000  C 
  H58      1.0000 0.73570  0.11730  0.52477  Biso   1.000  H 
  C133     1.0000 0.72770  0.05210  0.62847  Biso   1.000  C 
  H59      1.0000 0.75010  0.02880  0.60067  Biso   1.000  H 
  C134     1.0000 0.70310  0.03520  0.71597  Biso   1.000  C 
  C135     1.0000 0.66670  0.06720  0.75387  Biso   1.000  C 
  C136     1.0000 0.65820  0.11750  0.70897  Biso   1.000  C 
  H60      1.0000 0.63470  0.14000  0.73597  Biso   1.000  H 
  H61      1.0000 0.64760  0.05380  0.81157  Biso   1.000  H 
  C137     1.0000 0.71320  0.97860  0.77227  Biso   1.000  C 
  C138     1.0000 0.63970  0.91990  0.80917  Biso   1.000  C 
  C139     1.0000 0.57790  0.89480  0.75737  Biso   1.000  C 
  H62      1.0000 0.58280  0.91380  0.69987  Biso   1.000  H 
  C140     1.0000 0.50990  0.84360  0.78547  Biso   1.000  C 
  H63      1.0000 0.46930  0.83020  0.74887  Biso   1.000  H 
  C141     1.0000 0.50130  0.81160  0.86857  Biso   1.000  C 
  C142     1.0000 0.56360  0.83440  0.92077  Biso   1.000  C 
  H64      1.0000 0.55860  0.81320  0.97697  Biso   1.000  H 
  C143     1.0000 0.63220  0.88690  0.89287  Biso   1.000  C 
  H65      1.0000 0.67300  0.90040  0.92907  Biso   1.000  H 
  C144     1.0000 0.42860  0.75780  0.90407  Biso   1.000  C 
  O32      1.0000 0.37620  0.74430  0.85397  Biso   1.000  O 
  O33      1.0000 0.42500  0.73380  0.97937  Biso   1.000  O 
  C145     1.0000 0.74480  0.93960  0.71667  Biso   1.000  C 
  F40      1.0000 0.70320  0.90660  0.64777  Biso   1.000  F 
  F41      1.0000 0.74840  0.88950  0.76687  Biso   1.000  F 
  F42      1.0000 0.81250  0.98600  0.68847  Biso   1.000  F 
  C146     1.0000 0.76860  0.02370  0.84617  Biso   1.000  C 
  F43      1.0000 0.73810  0.04610  0.90827  Biso   1.000  F 
  F44      1.0000 0.79470  0.98720  0.88867  Biso   1.000  F 
  F45      1.0000 0.82590  0.08300  0.81037  Biso   1.000  F 
  C147     1.0000 0.88250  0.34180  0.12437  Biso   1.000  C 
  H66      1.0000 0.86000  0.36530  0.09737  Biso   1.000  H 
  C148     1.0000 0.93280  0.33330  0.07947  Biso   1.000  C 
  H67      1.0000 0.94620  0.35240  0.02177  Biso   1.000  H 
  H68      1.0000 0.88270  0.26430  0.30857  Biso   1.000  H 
  C149     1.0000 0.34180  0.88250  0.20897  Biso   1.000  C 
  H69      1.0000 0.36530  0.86000  0.23597  Biso   1.000  H 
  C150     1.0000 0.33330  0.93280  0.25387  Biso   1.000  C 
  H70      1.0000 0.35240  0.94620  0.31157  Biso   1.000  H 
  O34      1.0000 0.57500  0.30880  0.68730  Biso   1.000  O 
  O35      1.0000 0.65490  0.42570  0.55710  Biso   1.000  O 
  C151     1.0000 0.67950  0.48340  0.59470  Biso   1.000  C 
  C152     1.0000 0.68510  0.54860  0.54590  Biso   1.000  C 
  C153     1.0000 0.71820  0.61360  0.58360  Biso   1.000  C 
  H71      1.0000 0.73570  0.61840  0.64190  Biso   1.000  H 
  C154     1.0000 0.72770  0.67560  0.53820  Biso   1.000  C 
  H72      1.0000 0.75010  0.72130  0.56600  Biso   1.000  H 
  C155     1.0000 0.70310  0.66790  0.45070  Biso   1.000  C 
  C156     1.0000 0.66670  0.59950  0.41280  Biso   1.000  C 
  C157     1.0000 0.65820  0.54070  0.45770  Biso   1.000  C 
  H73      1.0000 0.63470  0.49470  0.43070  Biso   1.000  H 
  H74      1.0000 0.64760  0.59380  0.35510  Biso   1.000  H 
  C158     1.0000 0.71320  0.73460  0.39440  Biso   1.000  C 
  C159     1.0000 0.63970  0.71980  0.35750  Biso   1.000  C 
  C160     1.0000 0.57790  0.68310  0.40930  Biso   1.000  C 
  C161     1.0000 0.50990  0.66630  0.38120  Biso   1.000  C 
  H75      1.0000 0.46930  0.63910  0.41780  Biso   1.000  H 
  C162     1.0000 0.50130  0.68970  0.29810  Biso   1.000  C 
  C163     1.0000 0.56360  0.72920  0.24590  Biso   1.000  C 
  H76      1.0000 0.55860  0.74540  0.18970  Biso   1.000  H 
  C164     1.0000 0.63220  0.74530  0.27380  Biso   1.000  C 
  H77      1.0000 0.67300  0.77260  0.23760  Biso   1.000  H 
  C165     1.0000 0.42860  0.67080  0.26260  Biso   1.000  C 
  O36      1.0000 0.37620  0.63190  0.31270  Biso   1.000  O 
  O37      1.0000 0.42500  0.69120  0.18730  Biso   1.000  O 
  H78      1.0000 0.58280  0.66900  0.46680  Biso   1.000  H 
  C166     1.0000 0.74480  0.80520  0.45000  Biso   1.000  C 
  F46      1.0000 0.70320  0.79660  0.51890  Biso   1.000  F 
  F47      1.0000 0.74840  0.85890  0.39980  Biso   1.000  F 
  F48      1.0000 0.81250  0.82650  0.47820  Biso   1.000  F 
  C167     1.0000 0.76860  0.74490  0.32050  Biso   1.000  C 
  F49      1.0000 0.73810  0.69200  0.25840  Biso   1.000  F 
  F50      1.0000 0.79470  0.80750  0.27800  Biso   1.000  F 
  F51      1.0000 0.82590  0.74290  0.35630  Biso   1.000  F 
  O38      1.0000 0.70020  0.49830  0.67450  Biso   1.000  O 
  O39      1.0000 0.74430  0.36810  0.68730  Biso   1.000  O 
  C168     1.0000 0.75780  0.32920  0.73740  Biso   1.000  C 
  C169     1.0000 0.81160  0.31030  0.70190  Biso   1.000  C 
  C170     1.0000 0.84360  0.33370  0.61880  Biso   1.000  C 
  H79      1.0000 0.83020  0.36090  0.58220  Biso   1.000  H 
  C171     1.0000 0.89480  0.31690  0.59070  Biso   1.000  C 
  H80      1.0000 0.91380  0.33100  0.53320  Biso   1.000  H 
  C172     1.0000 0.91990  0.28020  0.64250  Biso   1.000  C 
  C173     1.0000 0.97860  0.26540  0.60560  Biso   1.000  C 
  C174     1.0000 0.93960  0.19480  0.55000  Biso   1.000  C 
  F52      1.0000 0.90660  0.20340  0.48110  Biso   1.000  F 
  F53      1.0000 0.88950  0.14110  0.60020  Biso   1.000  F 
  F54      1.0000 0.98600  0.17350  0.52180  Biso   1.000  F 
  C175     1.0000 0.03520  0.33210  0.54930  Biso   1.000  C 
  C176     1.0000 0.05210  0.32440  0.46180  Biso   1.000  C 
  H81      1.0000 0.02880  0.27870  0.43400  Biso   1.000  H 
  C177     1.0000 0.10460  0.38640  0.41640  Biso   1.000  C 
  H82      1.0000 0.11730  0.38160  0.35810  Biso   1.000  H 
  C178     1.0000 0.13650  0.45140  0.45410  Biso   1.000  C 
  C179     1.0000 0.19610  0.51660  0.40530  Biso   1.000  C 
  O40      1.0000 0.20190  0.50170  0.32550  Biso   1.000  O 
  O41      1.0000 0.22920  0.57430  0.44290  Biso   1.000  O 
  C180     1.0000 0.11750  0.45930  0.54230  Biso   1.000  C 
  H83      1.0000 0.14000  0.50530  0.56930  Biso   1.000  H 
  C181     1.0000 0.06720  0.40050  0.58720  Biso   1.000  C 
  H84      1.0000 0.05380  0.40620  0.64490  Biso   1.000  H 
  C182     1.0000 0.02370  0.25510  0.67950  Biso   1.000  C 
  F55      1.0000 0.04610  0.30800  0.74160  Biso   1.000  F 
  F56      1.0000 0.98720  0.19250  0.72200  Biso   1.000  F 
  F57      1.0000 0.08300  0.25710  0.64370  Biso   1.000  F 
  C183     1.0000 0.88690  0.25470  0.72620  Biso   1.000  C 
  C184     1.0000 0.83440  0.27080  0.75410  Biso   1.000  C 
  H85      1.0000 0.81320  0.25460  0.81030  Biso   1.000  H 
  H86      1.0000 0.90040  0.22740  0.76240  Biso   1.000  H 
  O42      1.0000 0.73380  0.30880  0.81270  Biso   1.000  O 
  O43      1.0000 0.79810  0.49830  0.82550  Biso   1.000  O 
  C185     1.0000 0.80390  0.48340  0.90530  Biso   1.000  C 
  C186     1.0000 0.86350  0.54860  0.95410  Biso   1.000  C 
  C187     1.0000 0.88250  0.54070  0.04230  Biso   1.000  C 
  H87      1.0000 0.86000  0.49470  0.06930  Biso   1.000  H 
  C188     1.0000 0.93280  0.59950  0.08720  Biso   1.000  C 
  H88      1.0000 0.94620  0.59380  0.14490  Biso   1.000  H 
  C189     1.0000 0.96480  0.66790  0.04930  Biso   1.000  C 
  C190     1.0000 0.02140  0.73460  0.10560  Biso   1.000  C 
  C191     1.0000 0.06040  0.80520  0.05000  Biso   1.000  C 
  F58      1.0000 0.09340  0.79660  0.98110  Biso   1.000  F 
  F59      1.0000 0.11050  0.85890  0.10020  Biso   1.000  F 
  F60      1.0000 0.01400  0.82650  0.02180  Biso   1.000  F 
  C192     1.0000 0.08010  0.71980  0.14250  Biso   1.000  C 
  C193     1.0000 0.10520  0.68310  0.09070  Biso   1.000  C 
  H89      1.0000 0.08620  0.66900  0.03320  Biso   1.000  H 
  C194     1.0000 0.15640  0.66630  0.11880  Biso   1.000  C 
  H90      1.0000 0.16980  0.63910  0.08220  Biso   1.000  H 
  C195     1.0000 0.18840  0.68970  0.20190  Biso   1.000  C 
  C196     1.0000 0.16560  0.72920  0.25410  Biso   1.000  C 
  H91      1.0000 0.18680  0.74540  0.31030  Biso   1.000  H 
  C197     1.0000 0.11310  0.74530  0.22620  Biso   1.000  C 
  H92      1.0000 0.09960  0.77260  0.26240  Biso   1.000  H 
  C198     1.0000 0.24220  0.67080  0.23740  Biso   1.000  C 
  O44      1.0000 0.25570  0.63190  0.18730  Biso   1.000  O 
  O45      1.0000 0.26620  0.69120  0.31270  Biso   1.000  O 
  C199     1.0000 0.97630  0.74490  0.17950  Biso   1.000  C 
  F61      1.0000 0.01280  0.80750  0.22200  Biso   1.000  F 
  F62      1.0000 0.95390  0.69200  0.24160  Biso   1.000  F 
  F63      1.0000 0.91700  0.74290  0.14370  Biso   1.000  F 
  C200     1.0000 0.94790  0.67560  0.96180  Biso   1.000  C 
  H93      1.0000 0.97120  0.72130  0.93400  Biso   1.000  H 
  C201     1.0000 0.89540  0.61360  0.91640  Biso   1.000  C 
  H94      1.0000 0.88270  0.61840  0.85810  Biso   1.000  H 
  O46      1.0000 0.77080  0.42570  0.94290  Biso   1.000  O 
  C202     1.0000 0.23140  0.25510  0.82050  Biso   1.000  C 
  F64      1.0000 0.26190  0.30800  0.75840  Biso   1.000  F 
  F65      1.0000 0.20530  0.19250  0.77800  Biso   1.000  F 
  F66      1.0000 0.17410  0.25710  0.85630  Biso   1.000  F 
  H95      1.0000 0.26430  0.38160  0.14190  Biso   1.000  H 
  O47      1.0000 0.29980  0.50170  0.17450  Biso   1.000  O 
  O48      1.0000 0.30880  0.73380  0.52063  Biso   1.000  O 
  C203     1.0000 0.19480  0.93960  0.78333  Biso   1.000  C 
  F67      1.0000 0.20340  0.90660  0.85223  Biso   1.000  F 
  F68      1.0000 0.14110  0.88950  0.73313  Biso   1.000  F 
  F69      1.0000 0.17350  0.98600  0.81153  Biso   1.000  F 
  C204     1.0000 0.25510  0.02370  0.65383  Biso   1.000  C 
  F70      1.0000 0.30800  0.04610  0.59173  Biso   1.000  F 
  F71      1.0000 0.19250  0.98720  0.61133  Biso   1.000  F 
  F72      1.0000 0.25710  0.08300  0.68963  Biso   1.000  F 
  H96      1.0000 0.38160  0.11730  0.97523  Biso   1.000  H 
