data_image0
_cell_length_a       26.808
_cell_length_b       8.1923
_cell_length_c       23.3025
_cell_angle_alpha    90
_cell_angle_beta     98.956
_cell_angle_gamma    90

_symmetry_space_group_name_H-M    "P 1"
_symmetry_int_tables_number       1

loop_
  _symmetry_equiv_pos_as_xyz
  'x, y, z'

loop_
  _atom_site_label
  _atom_site_occupancy
  _atom_site_fract_x
  _atom_site_fract_y
  _atom_site_fract_z
  _atom_site_thermal_displace_type
  _atom_site_B_iso_or_equiv
  _atom_site_type_symbol
  Zn1      1.0000 0.45956  0.87837  0.99840  Biso   1.000  Zn
  O1       1.0000 0.51440  0.76770  0.95950  Biso   1.000  O 
  C1       1.0000 0.55540  0.81170  0.94730  Biso   1.000  C 
  C2       1.0000 0.58300  0.70210  0.91230  Biso   1.000  C 
  C3       1.0000 0.56380  0.54050  0.89910  Biso   1.000  C 
  H1       1.0000 0.53470  0.50560  0.91440  Biso   1.000  H 
  C4       1.0000 0.58560  0.43690  0.86560  Biso   1.000  C 
  H2       1.0000 0.57380  0.32810  0.85950  Biso   1.000  H 
  C5       1.0000 0.62600  0.49370  0.84030  Biso   1.000  C 
  O2       1.0000 0.64950  0.38800  0.80630  Biso   1.000  O 
  C6       1.0000 0.62000  0.32620  0.75620  Biso   1.000  C 
  C7       1.0000 0.63800  0.18400  0.73350  Biso   1.000  C 
  C8       1.0000 0.61260  0.12100  0.68340  Biso   1.000  C 
  C9       1.0000 0.56780  0.19410  0.65390  Biso   1.000  C 
  C10      1.0000 0.53950  0.12350  0.59830  Biso   1.000  C 
  O3       1.0000 0.56160  0.00570  0.57670  Biso   1.000  O 
  Zn2      1.0000 0.54044  0.87837  0.50160  Biso   1.000  Zn
  O4       1.0000 0.48560  0.76770  0.54050  Biso   1.000  O 
  C11      1.0000 0.44460  0.81170  0.55270  Biso   1.000  C 
  C12      1.0000 0.41700  0.70210  0.58770  Biso   1.000  C 
  C13      1.0000 0.43620  0.54050  0.60090  Biso   1.000  C 
  H3       1.0000 0.46530  0.50560  0.58560  Biso   1.000  H 
  C14      1.0000 0.41440  0.43690  0.63440  Biso   1.000  C 
  H4       1.0000 0.42620  0.32810  0.64050  Biso   1.000  H 
  C15      1.0000 0.37400  0.49370  0.65970  Biso   1.000  C 
  O5       1.0000 0.35050  0.38800  0.69370  Biso   1.000  O 
  C16      1.0000 0.38000  0.32620  0.74380  Biso   1.000  C 
  C17      1.0000 0.36200  0.18400  0.76650  Biso   1.000  C 
  H5       1.0000 0.33250  0.13190  0.74710  Biso   1.000  H 
  C18      1.0000 0.38740  0.12100  0.81660  Biso   1.000  C 
  C19      1.0000 0.43220  0.19410  0.84610  Biso   1.000  C 
  C20      1.0000 0.46050  0.12350  0.90170  Biso   1.000  C 
  O6       1.0000 0.43840  0.00570  0.92330  Biso   1.000  O 
  O7       1.0000 0.50120  0.19020  0.92400  Biso   1.000  O 
  Zn3      1.0000 0.54044  0.12163  0.00160  Biso   1.000  Zn
  O8       1.0000 0.48560  0.23230  0.04050  Biso   1.000  O 
  C21      1.0000 0.44460  0.18830  0.05270  Biso   1.000  C 
  C22      1.0000 0.41700  0.29790  0.08770  Biso   1.000  C 
  C23      1.0000 0.37470  0.25390  0.11170  Biso   1.000  C 
  H6       1.0000 0.36020  0.14900  0.10360  Biso   1.000  H 
  C24      1.0000 0.35310  0.36050  0.14720  Biso   1.000  C 
  H7       1.0000 0.32360  0.32950  0.16250  Biso   1.000  H 
  C25      1.0000 0.37400  0.50630  0.15970  Biso   1.000  C 
  C26      1.0000 0.41440  0.56310  0.13440  Biso   1.000  C 
  C27      1.0000 0.43620  0.45950  0.10090  Biso   1.000  C 
  H8       1.0000 0.46530  0.49440  0.08560  Biso   1.000  H 
  H9       1.0000 0.42620  0.67190  0.14050  Biso   1.000  H 
  O9       1.0000 0.35050  0.61200  0.19370  Biso   1.000  O 
  C28      1.0000 0.38000  0.67380  0.24380  Biso   1.000  C 
  C29      1.0000 0.42390  0.59950  0.27140  Biso   1.000  C 
  H10      1.0000 0.43690  0.50450  0.25550  Biso   1.000  H 
  C30      1.0000 0.44790  0.66640  0.32180  Biso   1.000  C 
  H11      1.0000 0.47730  0.61320  0.34120  Biso   1.000  H 
  C31      1.0000 0.43220  0.80590  0.34610  Biso   1.000  C 
  C32      1.0000 0.46050  0.87650  0.40170  Biso   1.000  C 
  O10      1.0000 0.43840  0.99430  0.42330  Biso   1.000  O 
  Zn4      1.0000 0.45956  0.12163  0.49840  Biso   1.000  Zn
  N1       1.0000 0.40530  0.29620  0.48230  Biso   1.000  N 
  C33      1.0000 0.41080  0.42670  0.45100  Biso   1.000  C 
  H12      1.0000 0.43930  0.43180  0.43130  Biso   1.000  H 
  C34      1.0000 0.37840  0.55340  0.44510  Biso   1.000  C 
  H13      1.0000 0.38500  0.64490  0.42240  Biso   1.000  H 
  C35      1.0000 0.33510  0.55230  0.47190  Biso   1.000  C 
  C36      1.0000 0.30170  0.69360  0.46930  Biso   1.000  C 
  C37      1.0000 0.30820  0.83870  0.43360  Biso   1.000  C 
  H14      1.0000 0.34060  0.89090  0.44820  Biso   1.000  H 
  H15      1.0000 0.30770  0.80560  0.39310  Biso   1.000  H 
  H16      1.0000 0.28070  0.91610  0.43590  Biso   1.000  H 
  N2       1.0000 0.26540  0.68230  0.50010  Biso   1.000  N 
  N3       1.0000 0.23460  0.81770  0.49990  Biso   1.000  N 
  C38      1.0000 0.19830  0.80640  0.53070  Biso   1.000  C 
  C39      1.0000 0.19180  0.66130  0.56640  Biso   1.000  C 
  H17      1.0000 0.21930  0.58390  0.56410  Biso   1.000  H 
  H18      1.0000 0.15940  0.60910  0.55180  Biso   1.000  H 
  H19      1.0000 0.19230  0.69440  0.60690  Biso   1.000  H 
  C40      1.0000 0.16490  0.94770  0.52810  Biso   1.000  C 
  C41      1.0000 0.12160  0.94660  0.55490  Biso   1.000  C 
  H20      1.0000 0.11500  0.85510  0.57760  Biso   1.000  H 
  C42      1.0000 0.08920  0.07330  0.54900  Biso   1.000  C 
  H21      1.0000 0.06070  0.06820  0.56870  Biso   1.000  H 
  N4       1.0000 0.09470  0.20380  0.51770  Biso   1.000  N 
  C43      1.0000 0.13700  0.21050  0.49140  Biso   1.000  C 
  C44      1.0000 0.17190  0.08990  0.49540  Biso   1.000  C 
  H22      1.0000 0.20070  0.10030  0.47650  Biso   1.000  H 
  H23      1.0000 0.14210  0.30470  0.46920  Biso   1.000  H 
  Zn5      1.0000 0.04044  0.37837  0.50160  Biso   1.000  Zn
  O11      1.0000 0.00120  0.30980  0.42400  Biso   1.000  O 
  C45      1.0000 0.96050  0.37650  0.40170  Biso   1.000  C 
  O12      1.0000 0.93840  0.49430  0.42330  Biso   1.000  O 
  Zn6      1.0000 0.95956  0.62163  0.49840  Biso   1.000  Zn
  N5       1.0000 0.90530  0.79620  0.48230  Biso   1.000  N 
  C46      1.0000 0.91080  0.92670  0.45100  Biso   1.000  C 
  H24      1.0000 0.93930  0.93180  0.43130  Biso   1.000  H 
  C47      1.0000 0.87840  0.05340  0.44510  Biso   1.000  C 
  H25      1.0000 0.88500  0.14490  0.42240  Biso   1.000  H 
  C48      1.0000 0.83510  0.05230  0.47190  Biso   1.000  C 
  C49      1.0000 0.80170  0.19360  0.46930  Biso   1.000  C 
  C50      1.0000 0.80820  0.33870  0.43360  Biso   1.000  C 
  H26      1.0000 0.80770  0.30560  0.39310  Biso   1.000  H 
  H27      1.0000 0.84060  0.39090  0.44820  Biso   1.000  H 
  H28      1.0000 0.78070  0.41610  0.43590  Biso   1.000  H 
  N6       1.0000 0.76540  0.18230  0.50010  Biso   1.000  N 
  N7       1.0000 0.73460  0.31770  0.49990  Biso   1.000  N 
  C51      1.0000 0.69830  0.30640  0.53070  Biso   1.000  C 
  C52      1.0000 0.69180  0.16130  0.56640  Biso   1.000  C 
  H29      1.0000 0.71930  0.08390  0.56410  Biso   1.000  H 
  H30      1.0000 0.69230  0.19440  0.60690  Biso   1.000  H 
  H31      1.0000 0.65940  0.10910  0.55180  Biso   1.000  H 
  C53      1.0000 0.66490  0.44770  0.52810  Biso   1.000  C 
  C54      1.0000 0.62160  0.44660  0.55490  Biso   1.000  C 
  H32      1.0000 0.61500  0.35510  0.57760  Biso   1.000  H 
  C55      1.0000 0.58920  0.57330  0.54900  Biso   1.000  C 
  H33      1.0000 0.56070  0.56820  0.56870  Biso   1.000  H 
  N8       1.0000 0.59470  0.70380  0.51770  Biso   1.000  N 
  C56      1.0000 0.63700  0.71050  0.49140  Biso   1.000  C 
  H34      1.0000 0.64210  0.80470  0.46920  Biso   1.000  H 
  C57      1.0000 0.67190  0.58990  0.49540  Biso   1.000  C 
  H35      1.0000 0.70070  0.60030  0.47650  Biso   1.000  H 
  C58      1.0000 0.82810  0.91010  0.50460  Biso   1.000  C 
  H36      1.0000 0.79930  0.89970  0.52350  Biso   1.000  H 
  C59      1.0000 0.86300  0.78950  0.50860  Biso   1.000  C 
  H37      1.0000 0.85790  0.69530  0.53080  Biso   1.000  H 
  O13      1.0000 0.92370  0.45040  0.54120  Biso   1.000  O 
  C60      1.0000 0.94460  0.31170  0.55270  Biso   1.000  C 
  C61      1.0000 0.91700  0.20210  0.58770  Biso   1.000  C 
  C62      1.0000 0.87470  0.24610  0.61170  Biso   1.000  C 
  C63      1.0000 0.85310  0.13950  0.64720  Biso   1.000  C 
  H38      1.0000 0.82360  0.17050  0.66250  Biso   1.000  H 
  C64      1.0000 0.87400  0.99370  0.65970  Biso   1.000  C 
  C65      1.0000 0.91440  0.93690  0.63440  Biso   1.000  C 
  H39      1.0000 0.92620  0.82810  0.64050  Biso   1.000  H 
  C66      1.0000 0.93620  0.04050  0.60090  Biso   1.000  C 
  H40      1.0000 0.96530  0.00560  0.58560  Biso   1.000  H 
  O14      1.0000 0.85050  0.88800  0.69370  Biso   1.000  O 
  C67      1.0000 0.88000  0.82620  0.74380  Biso   1.000  C 
  C68      1.0000 0.86200  0.68400  0.76650  Biso   1.000  C 
  H41      1.0000 0.83250  0.63190  0.74710  Biso   1.000  H 
  C69      1.0000 0.88740  0.62100  0.81660  Biso   1.000  C 
  H42      1.0000 0.87470  0.52540  0.83240  Biso   1.000  H 
  C70      1.0000 0.93220  0.69410  0.84610  Biso   1.000  C 
  C71      1.0000 0.96050  0.62350  0.90170  Biso   1.000  C 
  O15      1.0000 0.00120  0.69020  0.92400  Biso   1.000  O 
  Zn7      1.0000 0.04044  0.62163  0.00160  Biso   1.000  Zn
  O16      1.0000 0.06160  0.49430  0.07670  Biso   1.000  O 
  C72      1.0000 0.03950  0.37650  0.09830  Biso   1.000  C 
  O17      1.0000 0.99880  0.30980  0.07600  Biso   1.000  O 
  Zn8      1.0000 0.95956  0.37837  0.99840  Biso   1.000  Zn
  O18      1.0000 0.93840  0.50570  0.92330  Biso   1.000  O 
  N9       1.0000 0.90530  0.20380  0.98230  Biso   1.000  N 
  C73      1.0000 0.91080  0.07330  0.95100  Biso   1.000  C 
  H43      1.0000 0.93930  0.06820  0.93130  Biso   1.000  H 
  C74      1.0000 0.87840  0.94660  0.94510  Biso   1.000  C 
  H44      1.0000 0.88500  0.85510  0.92240  Biso   1.000  H 
  C75      1.0000 0.83510  0.94770  0.97190  Biso   1.000  C 
  C76      1.0000 0.80170  0.80640  0.96930  Biso   1.000  C 
  C77      1.0000 0.80820  0.66130  0.93360  Biso   1.000  C 
  H45      1.0000 0.78070  0.58390  0.93590  Biso   1.000  H 
  H46      1.0000 0.84060  0.60910  0.94820  Biso   1.000  H 
  H47      1.0000 0.80770  0.69440  0.89310  Biso   1.000  H 
  N10      1.0000 0.76540  0.81770  0.00010  Biso   1.000  N 
  N11      1.0000 0.73460  0.68230  0.99990  Biso   1.000  N 
  C78      1.0000 0.69830  0.69360  0.03070  Biso   1.000  C 
  C79      1.0000 0.69180  0.83870  0.06640  Biso   1.000  C 
  H48      1.0000 0.69230  0.80560  0.10690  Biso   1.000  H 
  H49      1.0000 0.65940  0.89090  0.05180  Biso   1.000  H 
  H50      1.0000 0.71930  0.91610  0.06410  Biso   1.000  H 
  C80      1.0000 0.66490  0.55230  0.02810  Biso   1.000  C 
  C81      1.0000 0.62160  0.55340  0.05490  Biso   1.000  C 
  H51      1.0000 0.61500  0.64490  0.07760  Biso   1.000  H 
  C82      1.0000 0.58920  0.42670  0.04900  Biso   1.000  C 
  H52      1.0000 0.56070  0.43180  0.06870  Biso   1.000  H 
  N12      1.0000 0.59470  0.29620  0.01770  Biso   1.000  N 
  C83      1.0000 0.63700  0.28950  0.99140  Biso   1.000  C 
  H53      1.0000 0.64210  0.19530  0.96920  Biso   1.000  H 
  C84      1.0000 0.67190  0.41010  0.99540  Biso   1.000  C 
  H54      1.0000 0.70070  0.39970  0.97650  Biso   1.000  H 
  C85      1.0000 0.82810  0.08990  0.00460  Biso   1.000  C 
  H55      1.0000 0.79930  0.10030  0.02350  Biso   1.000  H 
  C86      1.0000 0.86300  0.21050  0.00860  Biso   1.000  C 
  H56      1.0000 0.85790  0.30470  0.03080  Biso   1.000  H 
  O19      1.0000 0.01440  0.26770  0.95950  Biso   1.000  O 
  C87      1.0000 0.05540  0.31170  0.94730  Biso   1.000  C 
  C88      1.0000 0.08300  0.20210  0.91230  Biso   1.000  C 
  C89      1.0000 0.06380  0.04050  0.89910  Biso   1.000  C 
  H57      1.0000 0.03470  0.00560  0.91440  Biso   1.000  H 
  C90      1.0000 0.08560  0.93690  0.86560  Biso   1.000  C 
  H58      1.0000 0.07380  0.82810  0.85950  Biso   1.000  H 
  C91      1.0000 0.12600  0.99370  0.84030  Biso   1.000  C 
  C92      1.0000 0.14690  0.13950  0.85280  Biso   1.000  C 
  H59      1.0000 0.17640  0.17050  0.83750  Biso   1.000  H 
  C93      1.0000 0.12530  0.24610  0.88830  Biso   1.000  C 
  H60      1.0000 0.13980  0.35100  0.89640  Biso   1.000  H 
  O20      1.0000 0.14950  0.88800  0.80630  Biso   1.000  O 
  C94      1.0000 0.12000  0.82620  0.75620  Biso   1.000  C 
  C95      1.0000 0.13800  0.68400  0.73350  Biso   1.000  C 
  C96      1.0000 0.11260  0.62100  0.68340  Biso   1.000  C 
  H61      1.0000 0.12530  0.52540  0.66760  Biso   1.000  H 
  C97      1.0000 0.06780  0.69410  0.65390  Biso   1.000  C 
  C98      1.0000 0.03950  0.62350  0.59830  Biso   1.000  C 
  O21      1.0000 0.06160  0.50570  0.57670  Biso   1.000  O 
  O22      1.0000 0.99880  0.69020  0.57600  Biso   1.000  O 
  C99      1.0000 0.05210  0.83360  0.67820  Biso   1.000  C 
  C100     1.0000 0.07610  0.90050  0.72860  Biso   1.000  C 
  H62      1.0000 0.06310  0.99550  0.74450  Biso   1.000  H 
  H63      1.0000 0.02270  0.88680  0.65880  Biso   1.000  H 
  H64      1.0000 0.16750  0.63190  0.75290  Biso   1.000  H 
  O23      1.0000 0.07630  0.45040  0.95880  Biso   1.000  O 
  O24      1.0000 0.92370  0.54960  0.04120  Biso   1.000  O 
  C101     1.0000 0.94460  0.68830  0.05270  Biso   1.000  C 
  C102     1.0000 0.91700  0.79790  0.08770  Biso   1.000  C 
  C103     1.0000 0.87470  0.75390  0.11170  Biso   1.000  C 
  H65      1.0000 0.86020  0.64900  0.10360  Biso   1.000  H 
  C104     1.0000 0.85310  0.86050  0.14720  Biso   1.000  C 
  H66      1.0000 0.82360  0.82950  0.16250  Biso   1.000  H 
  C105     1.0000 0.87400  0.00630  0.15970  Biso   1.000  C 
  C106     1.0000 0.91440  0.06310  0.13440  Biso   1.000  C 
  H67      1.0000 0.92620  0.17190  0.14050  Biso   1.000  H 
  C107     1.0000 0.93620  0.95950  0.10090  Biso   1.000  C 
  H68      1.0000 0.96530  0.99440  0.08560  Biso   1.000  H 
  O25      1.0000 0.85050  0.11200  0.19370  Biso   1.000  O 
  C108     1.0000 0.88000  0.17380  0.24380  Biso   1.000  C 
  C109     1.0000 0.86200  0.31600  0.26650  Biso   1.000  C 
  H69      1.0000 0.83250  0.36810  0.24710  Biso   1.000  H 
  C110     1.0000 0.88740  0.37900  0.31660  Biso   1.000  C 
  C111     1.0000 0.93220  0.30590  0.34610  Biso   1.000  C 
  C112     1.0000 0.94790  0.16640  0.32180  Biso   1.000  C 
  C113     1.0000 0.92390  0.09950  0.27140  Biso   1.000  C 
  H70      1.0000 0.93690  0.00450  0.25550  Biso   1.000  H 
  H71      1.0000 0.97730  0.11320  0.34120  Biso   1.000  H 
  H72      1.0000 0.87470  0.47460  0.33240  Biso   1.000  H 
  O26      1.0000 0.98560  0.73230  0.04050  Biso   1.000  O 
  C114     1.0000 0.06780  0.30590  0.15390  Biso   1.000  C 
  C115     1.0000 0.05210  0.16640  0.17820  Biso   1.000  C 
  H73      1.0000 0.02270  0.11320  0.15880  Biso   1.000  H 
  C116     1.0000 0.07610  0.09950  0.22860  Biso   1.000  C 
  H74      1.0000 0.06310  0.00450  0.24450  Biso   1.000  H 
  C117     1.0000 0.12000  0.17380  0.25620  Biso   1.000  C 
  C118     1.0000 0.13800  0.31600  0.23350  Biso   1.000  C 
  H75      1.0000 0.16750  0.36810  0.25290  Biso   1.000  H 
  C119     1.0000 0.11260  0.37900  0.18340  Biso   1.000  C 
  H76      1.0000 0.12530  0.47460  0.16760  Biso   1.000  H 
  O27      1.0000 0.14950  0.11200  0.30630  Biso   1.000  O 
  C120     1.0000 0.12600  0.00630  0.34030  Biso   1.000  C 
  C121     1.0000 0.08560  0.06310  0.36560  Biso   1.000  C 
  H77      1.0000 0.07380  0.17190  0.35950  Biso   1.000  H 
  C122     1.0000 0.06380  0.95950  0.39910  Biso   1.000  C 
  H78      1.0000 0.03470  0.99440  0.41440  Biso   1.000  H 
  C123     1.0000 0.08300  0.79790  0.41230  Biso   1.000  C 
  C124     1.0000 0.12530  0.75390  0.38830  Biso   1.000  C 
  H79      1.0000 0.13980  0.64900  0.39640  Biso   1.000  H 
  C125     1.0000 0.14690  0.86050  0.35280  Biso   1.000  C 
  H80      1.0000 0.17640  0.82950  0.33750  Biso   1.000  H 
  C126     1.0000 0.05540  0.68830  0.44730  Biso   1.000  C 
  O28      1.0000 0.07630  0.54960  0.45880  Biso   1.000  O 
  O29      1.0000 0.01440  0.73230  0.45950  Biso   1.000  O 
  N13      1.0000 0.09470  0.79620  0.01770  Biso   1.000  N 
  C127     1.0000 0.08920  0.92670  0.04900  Biso   1.000  C 
  H81      1.0000 0.06070  0.93180  0.06870  Biso   1.000  H 
  C128     1.0000 0.12160  0.05340  0.05490  Biso   1.000  C 
  H82      1.0000 0.11500  0.14490  0.07760  Biso   1.000  H 
  C129     1.0000 0.16490  0.05230  0.02810  Biso   1.000  C 
  C130     1.0000 0.19830  0.19360  0.03070  Biso   1.000  C 
  C131     1.0000 0.19180  0.33870  0.06640  Biso   1.000  C 
  H83      1.0000 0.19230  0.30560  0.10690  Biso   1.000  H 
  H84      1.0000 0.15940  0.39090  0.05180  Biso   1.000  H 
  H85      1.0000 0.21930  0.41610  0.06410  Biso   1.000  H 
  N14      1.0000 0.23460  0.18230  0.99990  Biso   1.000  N 
  N15      1.0000 0.26540  0.31770  0.00010  Biso   1.000  N 
  C132     1.0000 0.30170  0.30640  0.96930  Biso   1.000  C 
  C133     1.0000 0.30820  0.16130  0.93360  Biso   1.000  C 
  H86      1.0000 0.28070  0.08390  0.93590  Biso   1.000  H 
  H87      1.0000 0.30770  0.19440  0.89310  Biso   1.000  H 
  H88      1.0000 0.34060  0.10910  0.94820  Biso   1.000  H 
  C134     1.0000 0.33510  0.44770  0.97190  Biso   1.000  C 
  C135     1.0000 0.37840  0.44660  0.94510  Biso   1.000  C 
  H89      1.0000 0.38500  0.35510  0.92240  Biso   1.000  H 
  C136     1.0000 0.41080  0.57330  0.95100  Biso   1.000  C 
  H90      1.0000 0.43930  0.56820  0.93130  Biso   1.000  H 
  N16      1.0000 0.40530  0.70380  0.98230  Biso   1.000  N 
  C137     1.0000 0.36300  0.71050  0.00860  Biso   1.000  C 
  C138     1.0000 0.32810  0.58990  0.00460  Biso   1.000  C 
  H91      1.0000 0.29930  0.60030  0.02350  Biso   1.000  H 
  H92      1.0000 0.35790  0.80470  0.03080  Biso   1.000  H 
  C139     1.0000 0.17190  0.91010  0.99540  Biso   1.000  C 
  H93      1.0000 0.20070  0.89970  0.97650  Biso   1.000  H 
  C140     1.0000 0.13700  0.78950  0.99140  Biso   1.000  C 
  H94      1.0000 0.14210  0.69530  0.96920  Biso   1.000  H 
  C141     1.0000 0.94790  0.83360  0.82180  Biso   1.000  C 
  H95      1.0000 0.97730  0.88680  0.84120  Biso   1.000  H 
  C142     1.0000 0.92390  0.90050  0.77140  Biso   1.000  C 
  H96      1.0000 0.93690  0.99550  0.75550  Biso   1.000  H 
  H97      1.0000 0.86020  0.35100  0.60360  Biso   1.000  H 
  O30      1.0000 0.98560  0.26770  0.54050  Biso   1.000  O 
  C143     1.0000 0.32810  0.41010  0.50460  Biso   1.000  C 
  H98      1.0000 0.29930  0.39970  0.52350  Biso   1.000  H 
  C144     1.0000 0.36300  0.28950  0.50860  Biso   1.000  C 
  H99      1.0000 0.35790  0.19530  0.53080  Biso   1.000  H 
  O31      1.0000 0.49880  0.19020  0.57600  Biso   1.000  O 
  O32      1.0000 0.51440  0.23230  0.45950  Biso   1.000  O 
  C145     1.0000 0.55540  0.18830  0.44730  Biso   1.000  C 
  C146     1.0000 0.58300  0.29790  0.41230  Biso   1.000  C 
  C147     1.0000 0.62530  0.25390  0.38830  Biso   1.000  C 
  H100     1.0000 0.63980  0.14900  0.39640  Biso   1.000  H 
  C148     1.0000 0.64690  0.36050  0.35280  Biso   1.000  C 
  H101     1.0000 0.67640  0.32950  0.33750  Biso   1.000  H 
  C149     1.0000 0.62600  0.50630  0.34030  Biso   1.000  C 
  C150     1.0000 0.58560  0.56310  0.36560  Biso   1.000  C 
  C151     1.0000 0.56380  0.45950  0.39910  Biso   1.000  C 
  H102     1.0000 0.53470  0.49440  0.41440  Biso   1.000  H 
  H103     1.0000 0.57380  0.67190  0.35950  Biso   1.000  H 
  O33      1.0000 0.64950  0.61200  0.30630  Biso   1.000  O 
  C152     1.0000 0.62000  0.67380  0.25620  Biso   1.000  C 
  C153     1.0000 0.57610  0.59950  0.22860  Biso   1.000  C 
  H104     1.0000 0.56310  0.50450  0.24450  Biso   1.000  H 
  C154     1.0000 0.55210  0.66640  0.17820  Biso   1.000  C 
  H105     1.0000 0.52270  0.61320  0.15880  Biso   1.000  H 
  C155     1.0000 0.56780  0.80590  0.15390  Biso   1.000  C 
  C156     1.0000 0.53950  0.87650  0.09830  Biso   1.000  C 
  O34      1.0000 0.56160  0.99430  0.07670  Biso   1.000  O 
  O35      1.0000 0.49880  0.80980  0.07600  Biso   1.000  O 
  C157     1.0000 0.61260  0.87900  0.18340  Biso   1.000  C 
  H106     1.0000 0.62530  0.97460  0.16760  Biso   1.000  H 
  C158     1.0000 0.63800  0.81600  0.23350  Biso   1.000  C 
  H107     1.0000 0.66750  0.86810  0.25290  Biso   1.000  H 
  O36      1.0000 0.57630  0.04960  0.45880  Biso   1.000  O 
  O37      1.0000 0.42370  0.95040  0.54120  Biso   1.000  O 
  O38      1.0000 0.50120  0.80980  0.42400  Biso   1.000  O 
  C159     1.0000 0.38740  0.87900  0.31660  Biso   1.000  C 
  H108     1.0000 0.37470  0.97460  0.33240  Biso   1.000  H 
  C160     1.0000 0.36200  0.81600  0.26650  Biso   1.000  C 
  H109     1.0000 0.33250  0.86810  0.24710  Biso   1.000  H 
  O39      1.0000 0.42370  0.04960  0.04120  Biso   1.000  O 
  O40      1.0000 0.57630  0.95040  0.95880  Biso   1.000  O 
  C161     1.0000 0.44790  0.33360  0.82180  Biso   1.000  C 
  C162     1.0000 0.42390  0.40050  0.77140  Biso   1.000  C 
  H110     1.0000 0.43690  0.49550  0.75550  Biso   1.000  H 
  H111     1.0000 0.47730  0.38680  0.84120  Biso   1.000  H 
  H112     1.0000 0.37470  0.02540  0.83240  Biso   1.000  H 
  C163     1.0000 0.35310  0.63950  0.64720  Biso   1.000  C 
  H113     1.0000 0.32360  0.67050  0.66250  Biso   1.000  H 
  C164     1.0000 0.37470  0.74610  0.61170  Biso   1.000  C 
  H114     1.0000 0.36020  0.85100  0.60360  Biso   1.000  H 
  C165     1.0000 0.55210  0.33360  0.67820  Biso   1.000  C 
  H115     1.0000 0.52270  0.38680  0.65880  Biso   1.000  H 
  C166     1.0000 0.57610  0.40050  0.72860  Biso   1.000  C 
  H116     1.0000 0.56310  0.49550  0.74450  Biso   1.000  H 
  H117     1.0000 0.62530  0.02540  0.66760  Biso   1.000  H 
  H118     1.0000 0.66750  0.13190  0.75290  Biso   1.000  H 
  C167     1.0000 0.64690  0.63950  0.85280  Biso   1.000  C 
  H119     1.0000 0.67640  0.67050  0.83750  Biso   1.000  H 
  C168     1.0000 0.62530  0.74610  0.88830  Biso   1.000  C 
  H120     1.0000 0.63980  0.85100  0.89640  Biso   1.000  H 
