data_image0
_cell_length_a       16.467
_cell_length_b       20.134
_cell_length_c       20.72
_cell_angle_alpha    72.532
_cell_angle_beta     67.939
_cell_angle_gamma    75.042

_symmetry_space_group_name_H-M    "P 1"
_symmetry_int_tables_number       1

loop_
  _symmetry_equiv_pos_as_xyz
  'x, y, z'

loop_
  _atom_site_label
  _atom_site_occupancy
  _atom_site_fract_x
  _atom_site_fract_y
  _atom_site_fract_z
  _atom_site_thermal_displace_type
  _atom_site_B_iso_or_equiv
  _atom_site_type_symbol
  Ni1      1.0000 0.23721  0.92262  0.32528  Biso   1.000  Ni
  O1       1.0000 0.11730  0.99950  0.32110  Biso   1.000  O 
  C1       1.0000 0.09440  0.05880  0.32900  Biso   1.000  C 
  C2       1.0000 0.00180  0.10010  0.32460  Biso   1.000  C 
  C3       1.0000 0.98280  0.17110  0.32540  Biso   1.000  C 
  C4       1.0000 0.89990  0.20960  0.32010  Biso   1.000  C 
  C5       1.0000 0.84160  0.17590  0.31110  Biso   1.000  C 
  C6       1.0000 0.86370  0.10420  0.30900  Biso   1.000  C 
  C7       1.0000 0.94370  0.06780  0.31640  Biso   1.000  C 
  H1       1.0000 0.95880  0.02010  0.31590  Biso   1.000  H 
  C8       1.0000 0.80080  0.06970  0.29760  Biso   1.000  C 
  O2       1.0000 0.82030  0.00460  0.30230  Biso   1.000  O 
  Ni2      1.0000 0.74806  0.93157  0.30076  Biso   1.000  Ni
  O3       1.0000 0.67220  0.85640  0.30520  Biso   1.000  O 
  C9       1.0000 0.68970  0.78810  0.31530  Biso   1.000  C 
  C10      1.0000 0.61890  0.74930  0.32100  Biso   1.000  C 
  C11      1.0000 0.63600  0.67860  0.32760  Biso   1.000  C 
  H2       1.0000 0.69260  0.65450  0.32690  Biso   1.000  H 
  C12      1.0000 0.57260  0.64070  0.33540  Biso   1.000  C 
  C13      1.0000 0.59230  0.56160  0.34480  Biso   1.000  C 
  O4       1.0000 0.67310  0.53160  0.33490  Biso   1.000  O 
  Ni3      1.0000 0.73814  0.42479  0.33010  Biso   1.000  Ni
  O5       1.0000 0.80260  0.31930  0.32180  Biso   1.000  O 
  C14      1.0000 0.87880  0.28750  0.32110  Biso   1.000  C 
  O6       1.0000 0.94100  0.31600  0.31780  Biso   1.000  O 
  N1       1.0000 0.75640  0.44680  0.22260  Biso   1.000  N 
  C15      1.0000 0.79220  0.51110  0.17830  Biso   1.000  C 
  H3       1.0000 0.80390  0.51310  0.12830  Biso   1.000  H 
  H4       1.0000 0.74890  0.55220  0.19060  Biso   1.000  H 
  N2       1.0000 0.87510  0.51220  0.18960  Biso   1.000  N 
  C16      1.0000 0.95700  0.46610  0.14470  Biso   1.000  C 
  H5       1.0000 0.95020  0.41730  0.16770  Biso   1.000  H 
  H6       1.0000 0.00890  0.47330  0.15170  Biso   1.000  H 
  C17      1.0000 0.98130  0.47190  0.06580  Biso   1.000  C 
  C18      1.0000 0.98900  0.55900  0.04610  Biso   1.000  C 
  H7       1.0000 0.98490  0.58950  0.07360  Biso   1.000  H 
  C19      1.0000 0.00400  0.56640  0.98000  Biso   1.000  C 
  C20      1.0000 0.01870  0.52810  0.93420  Biso   1.000  C 
  C21      1.0000 0.04300  0.53390  0.85530  Biso   1.000  C 
  H8       1.0000 0.04980  0.58270  0.83230  Biso   1.000  H 
  N3       1.0000 0.12490  0.48780  0.81040  Biso   1.000  N 
  C22      1.0000 0.12830  0.48070  0.74610  Biso   1.000  C 
  H9       1.0000 0.17310  0.44030  0.73420  Biso   1.000  H 
  H10      1.0000 0.07160  0.46980  0.75170  Biso   1.000  H 
  N4       1.0000 0.14770  0.54130  0.68530  Biso   1.000  N 
  C23      1.0000 0.15620  0.53030  0.61360  Biso   1.000  C 
  H11      1.0000 0.19370  0.48560  0.60620  Biso   1.000  H 
  C24      1.0000 0.19640  0.59010  0.55610  Biso   1.000  C 
  H12      1.0000 0.15610  0.63420  0.56110  Biso   1.000  H 
  H13      1.0000 0.20620  0.58250  0.50950  Biso   1.000  H 
  N5       1.0000 0.28150  0.59380  0.56200  Biso   1.000  N 
  H14      1.0000 0.32080  0.55630  0.54660  Biso   1.000  H 
  C25      1.0000 0.32040  0.65780  0.51620  Biso   1.000  C 
  H15      1.0000 0.27930  0.69950  0.52950  Biso   1.000  H 
  H16      1.0000 0.32880  0.66050  0.46670  Biso   1.000  H 
  C26      1.0000 0.40800  0.65720  0.52360  Biso   1.000  C 
  H17      1.0000 0.44580  0.61250  0.51640  Biso   1.000  H 
  H18      1.0000 0.43640  0.69430  0.48600  Biso   1.000  H 
  C27      1.0000 0.40140  0.66770  0.59720  Biso   1.000  C 
  H19      1.0000 0.35650  0.70810  0.60870  Biso   1.000  H 
  H20      1.0000 0.45780  0.67710  0.59410  Biso   1.000  H 
  N6       1.0000 0.37940  0.60680  0.65230  Biso   1.000  N 
  H21      1.0000 0.42410  0.57020  0.64180  Biso   1.000  H 
  C28      1.0000 0.37080  0.61560  0.72380  Biso   1.000  C 
  C29      1.0000 0.33510  0.55050  0.78050  Biso   1.000  C 
  H22      1.0000 0.37390  0.50720  0.76950  Biso   1.000  H 
  H23      1.0000 0.33110  0.55290  0.82770  Biso   1.000  H 
  N7       1.0000 0.24360  0.55320  0.77740  Biso   1.000  N 
  H24      1.0000 0.20670  0.59040  0.79510  Biso   1.000  H 
  C30      1.0000 0.20780  0.48890  0.82170  Biso   1.000  C 
  H25      1.0000 0.25110  0.44780  0.80940  Biso   1.000  H 
  H26      1.0000 0.19610  0.48690  0.87170  Biso   1.000  H 
  Ni4      1.0000 0.26186  0.57521  0.66990  Biso   1.000  Ni
  O7       1.0000 0.32690  0.46840  0.66510  Biso   1.000  O 
  C31      1.0000 0.40770  0.43840  0.65520  Biso   1.000  C 
  C32      1.0000 0.42740  0.35930  0.66460  Biso   1.000  C 
  C33      1.0000 0.36400  0.32140  0.67240  Biso   1.000  C 
  H27      1.0000 0.30740  0.34550  0.67310  Biso   1.000  H 
  C34      1.0000 0.38110  0.25070  0.67900  Biso   1.000  C 
  C35      1.0000 0.46870  0.21240  0.67900  Biso   1.000  C 
  H28      1.0000 0.48310  0.16400  0.68220  Biso   1.000  H 
  C36      1.0000 0.53060  0.25150  0.67420  Biso   1.000  C 
  C37      1.0000 0.50940  0.32340  0.66720  Biso   1.000  C 
  H29      1.0000 0.55170  0.34820  0.66430  Biso   1.000  H 
  C38      1.0000 0.62050  0.21320  0.67880  Biso   1.000  C 
  O8       1.0000 0.64440  0.15130  0.67210  Biso   1.000  O 
  Ni5      1.0000 0.76279  0.07738  0.67472  Biso   1.000  Ni
  N8       1.0000 0.69880  0.00400  0.67380  Biso   1.000  N 
  C39      1.0000 0.66860  0.02560  0.60530  Biso   1.000  C 
  C40      1.0000 0.73670  0.04790  0.53490  Biso   1.000  C 
  H30      1.0000 0.78820  0.01090  0.52920  Biso   1.000  H 
  C41      1.0000 0.76320  0.11000  0.52730  Biso   1.000  C 
  H31      1.0000 0.79380  0.12730  0.47700  Biso   1.000  H 
  H32      1.0000 0.71050  0.14440  0.54140  Biso   1.000  H 
  N9       1.0000 0.81890  0.10710  0.56590  Biso   1.000  N 
  H33      1.0000 0.86760  0.07410  0.55280  Biso   1.000  H 
  C42      1.0000 0.85120  0.17420  0.55250  Biso   1.000  C 
  H34      1.0000 0.89340  0.18400  0.50470  Biso   1.000  H 
  H35      1.0000 0.80180  0.21300  0.55650  Biso   1.000  H 
  C43      1.0000 0.89530  0.16630  0.60750  Biso   1.000  C 
  H36      1.0000 0.94620  0.12870  0.60260  Biso   1.000  H 
  H37      1.0000 0.91530  0.20990  0.60110  Biso   1.000  H 
  N10      1.0000 0.82940  0.15000  0.67700  Biso   1.000  N 
  H38      1.0000 0.78910  0.19020  0.68200  Biso   1.000  H 
  C44      1.0000 0.86310  0.12930  0.73910  Biso   1.000  C 
  H39      1.0000 0.91250  0.09080  0.73110  Biso   1.000  H 
  H40      1.0000 0.88650  0.16890  0.73890  Biso   1.000  H 
  N11      1.0000 0.80420  0.10870  0.80660  Biso   1.000  N 
  C45      1.0000 0.74140  0.16370  0.83910  Biso   1.000  C 
  H41      1.0000 0.68640  0.17000  0.82930  Biso   1.000  H 
  H42      1.0000 0.76470  0.20770  0.81760  Biso   1.000  H 
  C46      1.0000 0.72250  0.14820  0.91620  Biso   1.000  C 
  C47      1.0000 0.63870  0.13600  0.97000  Biso   1.000  C 
  H43      1.0000 0.59080  0.13960  0.95500  Biso   1.000  H 
  C48      1.0000 0.62470  0.11960  0.04160  Biso   1.000  C 
  H44      1.0000 0.56890  0.11120  0.07320  Biso   1.000  H 
  C49      1.0000 0.68860  0.11550  0.06690  Biso   1.000  C 
  C50      1.0000 0.67610  0.09510  0.14410  Biso   1.000  C 
  H45      1.0000 0.73040  0.09670  0.15150  Biso   1.000  H 
  H46      1.0000 0.62910  0.12870  0.16780  Biso   1.000  H 
  N12      1.0000 0.65220  0.02040  0.17790  Biso   1.000  N 
  C51      1.0000 0.59530  0.01030  0.24780  Biso   1.000  C 
  H47      1.0000 0.54580  0.04910  0.25080  Biso   1.000  H 
  N13      1.0000 0.63390  0.00510  0.30300  Biso   1.000  N 
  H48      1.0000 0.64830  0.04810  0.29590  Biso   1.000  H 
  C52      1.0000 0.57160  0.98800  0.37870  Biso   1.000  C 
  H49      1.0000 0.54300  0.94900  0.38500  Biso   1.000  H 
  C53      1.0000 0.62420  0.96830  0.43020  Biso   1.000  C 
  H50      1.0000 0.58590  0.95340  0.47880  Biso   1.000  H 
  H51      1.0000 0.64780  0.00880  0.42760  Biso   1.000  H 
  N14      1.0000 0.69880  0.90940  0.41030  Biso   1.000  N 
  H52      1.0000 0.67330  0.87010  0.42360  Biso   1.000  H 
  C54      1.0000 0.76510  0.89200  0.44680  Biso   1.000  C 
  H53      1.0000 0.79020  0.93380  0.43760  Biso   1.000  H 
  H54      1.0000 0.73590  0.87820  0.49800  Biso   1.000  H 
  C55      1.0000 0.83880  0.83370  0.42360  Biso   1.000  C 
  H55      1.0000 0.81220  0.79370  0.42920  Biso   1.000  H 
  H56      1.0000 0.87300  0.81930  0.45620  Biso   1.000  H 
  C56      1.0000 0.90090  0.84870  0.35010  Biso   1.000  C 
  H57      1.0000 0.95090  0.81030  0.34490  Biso   1.000  H 
  H58      1.0000 0.92350  0.89150  0.34210  Biso   1.000  H 
  N15      1.0000 0.86040  0.85730  0.29640  Biso   1.000  N 
  H59      1.0000 0.84520  0.81500  0.30210  Biso   1.000  H 
  C57      1.0000 0.92270  0.87580  0.22120  Biso   1.000  C 
  C58      1.0000 0.86980  0.89350  0.17120  Biso   1.000  C 
  H60      1.0000 0.90780  0.90670  0.12220  Biso   1.000  H 
  H61      1.0000 0.84540  0.85270  0.17590  Biso   1.000  H 
  N16      1.0000 0.79670  0.95310  0.18940  Biso   1.000  N 
  C59      1.0000 0.72720  0.96470  0.15770  Biso   1.000  C 
  H62      1.0000 0.70460  0.92080  0.17100  Biso   1.000  H 
  H63      1.0000 0.75370  0.97590  0.10610  Biso   1.000  H 
  H64      1.0000 0.82080  0.99330  0.17370  Biso   1.000  H 
  H65      1.0000 0.96990  0.83630  0.21110  Biso   1.000  H 
  H66      1.0000 0.94930  0.91600  0.21520  Biso   1.000  H 
  H67      1.0000 0.52600  0.02850  0.38840  Biso   1.000  H 
  H68      1.0000 0.57150  0.96740  0.25880  Biso   1.000  H 
  C60      1.0000 0.77250  0.12590  0.01560  Biso   1.000  C 
  H69      1.0000 0.82030  0.12140  0.03110  Biso   1.000  H 
  C61      1.0000 0.78530  0.14230  0.94410  Biso   1.000  C 
  H70      1.0000 0.84160  0.14990  0.91280  Biso   1.000  H 
  C62      1.0000 0.77180  0.04570  0.82420  Biso   1.000  C 
  H71      1.0000 0.82180  0.00810  0.81380  Biso   1.000  H 
  H72      1.0000 0.74090  0.03450  0.87530  Biso   1.000  H 
  N17      1.0000 0.70820  0.04660  0.78490  Biso   1.000  N 
  H73      1.0000 0.65900  0.07890  0.79900  Biso   1.000  H 
  C63      1.0000 0.67920  0.98140  0.79850  Biso   1.000  C 
  C64      1.0000 0.63610  0.98450  0.74770  Biso   1.000  C 
  H74      1.0000 0.62010  0.93900  0.75530  Biso   1.000  H 
  H75      1.0000 0.58230  0.01940  0.75420  Biso   1.000  H 
  H76      1.0000 0.63790  0.97140  0.84680  Biso   1.000  H 
  H77      1.0000 0.72980  0.94350  0.79480  Biso   1.000  H 
  H78      1.0000 0.71260  0.05340  0.49710  Biso   1.000  H 
  H79      1.0000 0.61870  0.06400  0.61140  Biso   1.000  H 
  H80      1.0000 0.64720  0.98580  0.60350  Biso   1.000  H 
  H81      1.0000 0.74110  0.96490  0.66820  Biso   1.000  H 
  O9       1.0000 0.88270  0.00050  0.67890  Biso   1.000  O 
  C65      1.0000 0.90560  0.94120  0.67100  Biso   1.000  C 
  C66      1.0000 0.99820  0.89990  0.67540  Biso   1.000  C 
  C67      1.0000 0.01720  0.82890  0.67460  Biso   1.000  C 
  C68      1.0000 0.10010  0.79040  0.67990  Biso   1.000  C 
  C69      1.0000 0.15840  0.82410  0.68890  Biso   1.000  C 
  H82      1.0000 0.21250  0.79860  0.69350  Biso   1.000  H 
  C70      1.0000 0.13630  0.89580  0.69100  Biso   1.000  C 
  C71      1.0000 0.05630  0.93220  0.68360  Biso   1.000  C 
  H83      1.0000 0.04120  0.97990  0.68410  Biso   1.000  H 
  C72      1.0000 0.19920  0.93030  0.70240  Biso   1.000  C 
  O10      1.0000 0.17970  0.99540  0.69770  Biso   1.000  O 
  Ni6      1.0000 0.25194  0.06843  0.69924  Biso   1.000  Ni
  N18      1.0000 0.30120  0.09060  0.58970  Biso   1.000  N 
  C73      1.0000 0.23490  0.10800  0.55320  Biso   1.000  C 
  H84      1.0000 0.26410  0.12180  0.50200  Biso   1.000  H 
  H85      1.0000 0.20980  0.06620  0.56240  Biso   1.000  H 
  C74      1.0000 0.16120  0.16630  0.57640  Biso   1.000  C 
  C75      1.0000 0.09910  0.15130  0.64990  Biso   1.000  C 
  H86      1.0000 0.07650  0.10850  0.65790  Biso   1.000  H 
  H87      1.0000 0.04910  0.18970  0.65510  Biso   1.000  H 
  N19      1.0000 0.13960  0.14270  0.70360  Biso   1.000  N 
  C76      1.0000 0.07730  0.12420  0.77880  Biso   1.000  C 
  H88      1.0000 0.05070  0.08400  0.78480  Biso   1.000  H 
  H89      1.0000 0.03010  0.16370  0.78890  Biso   1.000  H 
  C77      1.0000 0.13020  0.10650  0.82880  Biso   1.000  C 
  H90      1.0000 0.15460  0.14730  0.82410  Biso   1.000  H 
  H91      1.0000 0.09220  0.09330  0.87780  Biso   1.000  H 
  N20      1.0000 0.20330  0.04690  0.81060  Biso   1.000  N 
  H92      1.0000 0.17920  0.00670  0.82630  Biso   1.000  H 
  C78      1.0000 0.27280  0.03530  0.84230  Biso   1.000  C 
  H93      1.0000 0.29540  0.07920  0.82900  Biso   1.000  H 
  H94      1.0000 0.24630  0.02410  0.89390  Biso   1.000  H 
  N21      1.0000 0.34780  0.97960  0.82210  Biso   1.000  N 
  C79      1.0000 0.40470  0.98970  0.75220  Biso   1.000  C 
  H95      1.0000 0.45420  0.95090  0.74920  Biso   1.000  H 
  H96      1.0000 0.42850  0.03260  0.74120  Biso   1.000  H 
  N22      1.0000 0.36610  0.99490  0.69700  Biso   1.000  N 
  H97      1.0000 0.35170  0.95190  0.70410  Biso   1.000  H 
  C80      1.0000 0.42840  0.01200  0.62130  Biso   1.000  C 
  H98      1.0000 0.45700  0.05100  0.61500  Biso   1.000  H 
  C81      1.0000 0.37580  0.03170  0.56980  Biso   1.000  C 
  H99      1.0000 0.41410  0.04660  0.52120  Biso   1.000  H 
  H100     1.0000 0.35220  0.99120  0.57240  Biso   1.000  H 
  H101     1.0000 0.47400  0.97150  0.61160  Biso   1.000  H 
  C82      1.0000 0.32390  0.90490  0.85590  Biso   1.000  C 
  H102     1.0000 0.37090  0.87130  0.83220  Biso   1.000  H 
  H103     1.0000 0.26960  0.90330  0.84850  Biso   1.000  H 
  C83      1.0000 0.31140  0.88450  0.93310  Biso   1.000  C 
  C84      1.0000 0.37530  0.88040  0.95840  Biso   1.000  C 
  H104     1.0000 0.43110  0.88880  0.92680  Biso   1.000  H 
  C85      1.0000 0.36130  0.86400  0.03000  Biso   1.000  C 
  C86      1.0000 0.27750  0.85180  0.08380  Biso   1.000  C 
  C87      1.0000 0.25860  0.83630  0.16090  Biso   1.000  C 
  H105     1.0000 0.23530  0.79230  0.18240  Biso   1.000  H 
  H106     1.0000 0.31360  0.83000  0.17070  Biso   1.000  H 
  N23      1.0000 0.19580  0.89130  0.19340  Biso   1.000  N 
  C88      1.0000 0.22820  0.95430  0.17580  Biso   1.000  C 
  H107     1.0000 0.17820  0.99190  0.18620  Biso   1.000  H 
  H108     1.0000 0.25910  0.96550  0.12470  Biso   1.000  H 
  N24      1.0000 0.29180  0.95340  0.21510  Biso   1.000  N 
  H109     1.0000 0.34100  0.92110  0.20100  Biso   1.000  H 
  C89      1.0000 0.32080  0.01860  0.20150  Biso   1.000  C 
  H110     1.0000 0.27020  0.05650  0.20520  Biso   1.000  H 
  H111     1.0000 0.36210  0.02860  0.15320  Biso   1.000  H 
  C90      1.0000 0.36390  0.01550  0.25230  Biso   1.000  C 
  H112     1.0000 0.37990  0.06100  0.24470  Biso   1.000  H 
  N25      1.0000 0.30120  0.99600  0.32620  Biso   1.000  N 
  C91      1.0000 0.33140  0.97440  0.39470  Biso   1.000  C 
  H113     1.0000 0.38130  0.93600  0.38860  Biso   1.000  H 
  C92      1.0000 0.26330  0.95210  0.46510  Biso   1.000  C 
  C93      1.0000 0.23680  0.89000  0.47270  Biso   1.000  C 
  H114     1.0000 0.28950  0.85560  0.45860  Biso   1.000  H 
  H115     1.0000 0.20620  0.87270  0.52300  Biso   1.000  H 
  N26      1.0000 0.18110  0.89290  0.43410  Biso   1.000  N 
  C94      1.0000 0.14880  0.82580  0.44750  Biso   1.000  C 
  C95      1.0000 0.10470  0.83370  0.39250  Biso   1.000  C 
  H116     1.0000 0.05380  0.87130  0.39740  Biso   1.000  H 
  H117     1.0000 0.08470  0.79010  0.39890  Biso   1.000  H 
  N27      1.0000 0.17060  0.85000  0.32300  Biso   1.000  N 
  C96      1.0000 0.13690  0.87070  0.26090  Biso   1.000  C 
  H118     1.0000 0.11350  0.83110  0.26110  Biso   1.000  H 
  H119     1.0000 0.08750  0.90920  0.26890  Biso   1.000  H 
  H120     1.0000 0.21090  0.80980  0.31800  Biso   1.000  H 
  H121     1.0000 0.19820  0.78700  0.44350  Biso   1.000  H 
  H122     1.0000 0.10660  0.81600  0.49530  Biso   1.000  H 
  H123     1.0000 0.13240  0.92590  0.44720  Biso   1.000  H 
  H124     1.0000 0.21180  0.98910  0.47080  Biso   1.000  H 
  H125     1.0000 0.28740  0.94660  0.50290  Biso   1.000  H 
  H126     1.0000 0.35280  0.01420  0.39650  Biso   1.000  H 
  H127     1.0000 0.25890  0.03510  0.33180  Biso   1.000  H 
  H128     1.0000 0.41770  0.98060  0.24580  Biso   1.000  H 
  C97      1.0000 0.21470  0.85770  0.05590  Biso   1.000  C 
  H129     1.0000 0.15840  0.85010  0.08720  Biso   1.000  H 
  C98      1.0000 0.22750  0.87410  0.98440  Biso   1.000  C 
  H130     1.0000 0.17970  0.87860  0.96890  Biso   1.000  H 
  H131     1.0000 0.40920  0.86040  0.04500  Biso   1.000  H 
  H132     1.0000 0.15480  0.18500  0.69790  Biso   1.000  H 
  H133     1.0000 0.12700  0.18070  0.54380  Biso   1.000  H 
  H134     1.0000 0.18780  0.20630  0.57080  Biso   1.000  H 
  H135     1.0000 0.32670  0.12990  0.57640  Biso   1.000  H 
  O11      1.0000 0.32780  0.14360  0.69480  Biso   1.000  O 
  C99      1.0000 0.31030  0.21190  0.68470  Biso   1.000  C 
  O12      1.0000 0.24190  0.24830  0.67340  Biso   1.000  O 
  O13      1.0000 0.26520  0.88970  0.71690  Biso   1.000  O 
  C100     1.0000 0.12120  0.71250  0.67890  Biso   1.000  C 
  O14      1.0000 0.19740  0.68070  0.67820  Biso   1.000  O 
  O15      1.0000 0.05900  0.68400  0.68220  Biso   1.000  O 
  H136     1.0000 0.97640  0.80720  0.67070  Biso   1.000  H 
  O16      1.0000 0.85860  0.90690  0.66040  Biso   1.000  O 
  O17      1.0000 0.66730  0.24800  0.68600  Biso   1.000  O 
  O18      1.0000 0.46890  0.47100  0.63750  Biso   1.000  O 
  H137     1.0000 0.33010  0.65850  0.73370  Biso   1.000  H 
  H138     1.0000 0.42820  0.61880  0.72470  Biso   1.000  H 
  H139     1.0000 0.09820  0.52960  0.61230  Biso   1.000  H 
  H140     1.0000 0.10210  0.57760  0.69510  Biso   1.000  H 
  H141     1.0000 0.99110  0.52670  0.84830  Biso   1.000  H 
  C101     1.0000 0.01100  0.44100  0.95390  Biso   1.000  C 
  H142     1.0000 0.01510  0.41050  0.92640  Biso   1.000  H 
  C102     1.0000 0.99600  0.43360  0.02000  Biso   1.000  C 
  H143     1.0000 0.99580  0.38620  0.04310  Biso   1.000  H 
  H144     1.0000 0.00420  0.61380  0.95690  Biso   1.000  H 
  C103     1.0000 0.87170  0.51930  0.25390  Biso   1.000  C 
  H145     1.0000 0.92840  0.53020  0.24830  Biso   1.000  H 
  H146     1.0000 0.82690  0.55970  0.26580  Biso   1.000  H 
  N28      1.0000 0.85230  0.45870  0.31470  Biso   1.000  N 
  H147     1.0000 0.89790  0.42240  0.30490  Biso   1.000  H 
  C104     1.0000 0.84380  0.46970  0.38640  Biso   1.000  C 
  C105     1.0000 0.80360  0.40990  0.44390  Biso   1.000  C 
  H148     1.0000 0.79380  0.41750  0.49050  Biso   1.000  H 
  H149     1.0000 0.84390  0.36580  0.43890  Biso   1.000  H 
  N29      1.0000 0.71850  0.40620  0.43800  Biso   1.000  N 
  C106     1.0000 0.67960  0.34220  0.48380  Biso   1.000  C 
  C107     1.0000 0.59200  0.34280  0.47640  Biso   1.000  C 
  C108     1.0000 0.59860  0.33230  0.40280  Biso   1.000  C 
  H150     1.0000 0.54220  0.32290  0.40590  Biso   1.000  H 
  H151     1.0000 0.64350  0.29190  0.39130  Biso   1.000  H 
  N30      1.0000 0.62060  0.39320  0.34770  Biso   1.000  N 
  C109     1.0000 0.62920  0.38440  0.27620  Biso   1.000  C 
  H152     1.0000 0.57180  0.38120  0.27530  Biso   1.000  H 
  H153     1.0000 0.66990  0.34150  0.26630  Biso   1.000  H 
  C110     1.0000 0.66490  0.44950  0.21950  Biso   1.000  C 
  H154     1.0000 0.66890  0.44710  0.17230  Biso   1.000  H 
  H155     1.0000 0.62610  0.49280  0.23050  Biso   1.000  H 
  H156     1.0000 0.57590  0.42980  0.35820  Biso   1.000  H 
  H157     1.0000 0.56360  0.30570  0.51400  Biso   1.000  H 
  H158     1.0000 0.55420  0.38750  0.48360  Biso   1.000  H 
  H159     1.0000 0.67120  0.33950  0.53330  Biso   1.000  H 
  H160     1.0000 0.72070  0.30050  0.47050  Biso   1.000  H 
  H161     1.0000 0.67920  0.44370  0.45340  Biso   1.000  H 
  H162     1.0000 0.80630  0.51440  0.39380  Biso   1.000  H 
  H163     1.0000 0.90180  0.47040  0.38770  Biso   1.000  H 
  H164     1.0000 0.79330  0.40960  0.20490  Biso   1.000  H 
  O19      1.0000 0.53110  0.52900  0.36250  Biso   1.000  O 
  C111     1.0000 0.49060  0.67660  0.33280  Biso   1.000  C 
  H165     1.0000 0.44830  0.65180  0.33570  Biso   1.000  H 
  C112     1.0000 0.46940  0.74850  0.32580  Biso   1.000  C 
  C113     1.0000 0.37950  0.78680  0.32120  Biso   1.000  C 
  O20      1.0000 0.35560  0.84870  0.32790  Biso   1.000  O 
  O21      1.0000 0.33270  0.75200  0.31400  Biso   1.000  O 
  C114     1.0000 0.53130  0.78760  0.32100  Biso   1.000  C 
  H166     1.0000 0.51690  0.83600  0.31780  Biso   1.000  H 
  O22      1.0000 0.75810  0.75170  0.32660  Biso   1.000  O 
  O23      1.0000 0.73480  0.11030  0.28310  Biso   1.000  O 
  H167     1.0000 0.78750  0.20140  0.30650  Biso   1.000  H 
  H168     1.0000 0.02360  0.19280  0.32930  Biso   1.000  H 
  O24      1.0000 0.14140  0.09310  0.33960  Biso   1.000  O 
