data_image0
_cell_length_a       18.1746
_cell_length_b       18.2933
_cell_length_c       9.9827
_cell_angle_alpha    90
_cell_angle_beta     90
_cell_angle_gamma    90

_symmetry_space_group_name_H-M    "P 1"
_symmetry_int_tables_number       1

loop_
  _symmetry_equiv_pos_as_xyz
  'x, y, z'

loop_
  _atom_site_label
  _atom_site_occupancy
  _atom_site_fract_x
  _atom_site_fract_y
  _atom_site_fract_z
  _atom_site_thermal_displace_type
  _atom_site_B_iso_or_equiv
  _atom_site_type_symbol
  P1       1.0000 0.32894  0.28596  0.31585  Biso   1.000  P 
  P2       1.0000 0.17106  0.71404  0.81585  Biso   1.000  P 
  P3       1.0000 0.82894  0.21404  0.68415  Biso   1.000  P 
  P4       1.0000 0.67106  0.78596  0.18415  Biso   1.000  P 
  O1       1.0000 0.46870  0.16220  0.53860  Biso   1.000  O 
  O2       1.0000 0.03130  0.83780  0.03860  Biso   1.000  O 
  O3       1.0000 0.96870  0.33780  0.46140  Biso   1.000  O 
  O4       1.0000 0.53130  0.66220  0.96140  Biso   1.000  O 
  O5       1.0000 0.24310  0.16190  0.32140  Biso   1.000  O 
  O6       1.0000 0.25690  0.83810  0.82140  Biso   1.000  O 
  O7       1.0000 0.74310  0.33810  0.67860  Biso   1.000  O 
  O8       1.0000 0.75690  0.66190  0.17860  Biso   1.000  O 
  O9       1.0000 0.12150  0.36160  0.32180  Biso   1.000  O 
  O10      1.0000 0.37850  0.63840  0.82180  Biso   1.000  O 
  O11      1.0000 0.62150  0.13840  0.67820  Biso   1.000  O 
  O12      1.0000 0.87850  0.86160  0.17820  Biso   1.000  O 
  O13      1.0000 0.32980  0.33640  0.57630  Biso   1.000  O 
  O14      1.0000 0.17020  0.66360  0.07630  Biso   1.000  O 
  O15      1.0000 0.82980  0.16360  0.42370  Biso   1.000  O 
  O16      1.0000 0.67020  0.83640  0.92370  Biso   1.000  O 
  N1       1.0000 0.42030  0.25810  0.41080  Biso   1.000  N 
  N2       1.0000 0.07970  0.74190  0.91080  Biso   1.000  N 
  N3       1.0000 0.92030  0.24190  0.58920  Biso   1.000  N 
  N4       1.0000 0.57970  0.75810  0.08920  Biso   1.000  N 
  N5       1.0000 0.35390  0.15450  0.43650  Biso   1.000  N 
  N6       1.0000 0.14610  0.84550  0.93650  Biso   1.000  N 
  N7       1.0000 0.85390  0.34550  0.56350  Biso   1.000  N 
  N8       1.0000 0.64610  0.65450  0.06350  Biso   1.000  N 
  N9       1.0000 0.23090  0.30500  0.25590  Biso   1.000  N 
  N10      1.0000 0.26910  0.69500  0.75590  Biso   1.000  N 
  N11      1.0000 0.73090  0.19500  0.74410  Biso   1.000  N 
  N12      1.0000 0.76910  0.80500  0.24410  Biso   1.000  N 
  N13      1.0000 0.22340  0.35630  0.46100  Biso   1.000  N 
  N14      1.0000 0.27660  0.64370  0.96100  Biso   1.000  N 
  N15      1.0000 0.72340  0.14370  0.53900  Biso   1.000  N 
  N16      1.0000 0.77660  0.85630  0.03900  Biso   1.000  N 
  C1       1.0000 0.41960  0.19110  0.46560  Biso   1.000  C 
  C2       1.0000 0.08040  0.80890  0.96560  Biso   1.000  C 
  C3       1.0000 0.91960  0.30890  0.53440  Biso   1.000  C 
  C4       1.0000 0.58040  0.69110  0.03440  Biso   1.000  C 
  C5       1.0000 0.29820  0.19700  0.35620  Biso   1.000  C 
  C6       1.0000 0.20180  0.80300  0.85620  Biso   1.000  C 
  C7       1.0000 0.79820  0.30300  0.64380  Biso   1.000  C 
  C8       1.0000 0.70180  0.69700  0.14380  Biso   1.000  C 
  C9       1.0000 0.18660  0.34160  0.33900  Biso   1.000  C 
  C10      1.0000 0.31340  0.65840  0.83900  Biso   1.000  C 
  C11      1.0000 0.68660  0.15840  0.66100  Biso   1.000  C 
  C12      1.0000 0.81340  0.84160  0.16100  Biso   1.000  C 
  C13      1.0000 0.29990  0.33030  0.47440  Biso   1.000  C 
  C14      1.0000 0.20010  0.66970  0.97440  Biso   1.000  C 
  C15      1.0000 0.79990  0.16970  0.52560  Biso   1.000  C 
  C16      1.0000 0.70010  0.83030  0.02560  Biso   1.000  C 
  C17      1.0000 0.48080  0.30490  0.42290  Biso   1.000  C 
  C18      1.0000 0.01920  0.69510  0.92290  Biso   1.000  C 
  C19      1.0000 0.98080  0.19510  0.57710  Biso   1.000  C 
  C20      1.0000 0.51920  0.80490  0.07710  Biso   1.000  C 
  C21      1.0000 0.52180  0.30960  0.53950  Biso   1.000  C 
  C22      1.0000 0.97820  0.69040  0.03950  Biso   1.000  C 
  C23      1.0000 0.02180  0.19040  0.46050  Biso   1.000  C 
  C24      1.0000 0.47820  0.80960  0.96050  Biso   1.000  C 
  H1       1.0000 0.50910  0.28010  0.61430  Biso   1.000  H 
  H2       1.0000 0.99090  0.71990  0.11430  Biso   1.000  H 
  H3       1.0000 0.00910  0.21990  0.38570  Biso   1.000  H 
  H4       1.0000 0.49090  0.78010  0.88570  Biso   1.000  H 
  C25      1.0000 0.58340  0.35890  0.54840  Biso   1.000  C 
  C26      1.0000 0.91660  0.64110  0.04840  Biso   1.000  C 
  C27      1.0000 0.08340  0.14110  0.45160  Biso   1.000  C 
  C28      1.0000 0.41660  0.85890  0.95160  Biso   1.000  C 
  H5       1.0000 0.61160  0.36090  0.62830  Biso   1.000  H 
  H6       1.0000 0.88840  0.63910  0.12830  Biso   1.000  H 
  H7       1.0000 0.11160  0.13910  0.37170  Biso   1.000  H 
  H8       1.0000 0.38840  0.86090  0.87170  Biso   1.000  H 
  C29      1.0000 0.60140  0.40260  0.44290  Biso   1.000  C 
  C30      1.0000 0.89860  0.59740  0.94290  Biso   1.000  C 
  C31      1.0000 0.10140  0.09740  0.55710  Biso   1.000  C 
  C32      1.0000 0.39860  0.90260  0.05710  Biso   1.000  C 
  H9       1.0000 0.64280  0.43410  0.44780  Biso   1.000  H 
  H10      1.0000 0.85720  0.56590  0.94780  Biso   1.000  H 
  H11      1.0000 0.14280  0.06590  0.55220  Biso   1.000  H 
  H12      1.0000 0.35720  0.93410  0.05220  Biso   1.000  H 
  C33      1.0000 0.56040  0.40040  0.33370  Biso   1.000  C 
  C34      1.0000 0.93960  0.59960  0.83370  Biso   1.000  C 
  C35      1.0000 0.06040  0.09960  0.66630  Biso   1.000  C 
  C36      1.0000 0.43960  0.90040  0.16630  Biso   1.000  C 
  H13      1.0000 0.57100  0.43390  0.26350  Biso   1.000  H 
  H14      1.0000 0.92900  0.56610  0.76350  Biso   1.000  H 
  H15      1.0000 0.07100  0.06610  0.73650  Biso   1.000  H 
  H16      1.0000 0.42900  0.93390  0.23650  Biso   1.000  H 
  C37      1.0000 0.50000  0.34940  0.31580  Biso   1.000  C 
  C38      1.0000 0.00000  0.65060  0.81580  Biso   1.000  C 
  C39      1.0000 0.00000  0.15060  0.68420  Biso   1.000  C 
  C40      1.0000 0.50000  0.84940  0.18420  Biso   1.000  C 
  H17      1.0000 0.47440  0.34650  0.23300  Biso   1.000  H 
  H18      1.0000 0.02560  0.65350  0.73300  Biso   1.000  H 
  H19      1.0000 0.97440  0.15350  0.76700  Biso   1.000  H 
  H20      1.0000 0.52560  0.84650  0.26700  Biso   1.000  H 
  C41      1.0000 0.33730  0.08290  0.48640  Biso   1.000  C 
  C42      1.0000 0.16270  0.91710  0.98640  Biso   1.000  C 
  C43      1.0000 0.83730  0.41710  0.51360  Biso   1.000  C 
  C44      1.0000 0.66270  0.58290  0.01360  Biso   1.000  C 
  C45      1.0000 0.33460  0.07040  0.62130  Biso   1.000  C 
  C46      1.0000 0.16540  0.92960  0.12130  Biso   1.000  C 
  C47      1.0000 0.83460  0.42960  0.37870  Biso   1.000  C 
  C48      1.0000 0.66540  0.57040  0.87870  Biso   1.000  C 
  H21      1.0000 0.34400  0.10900  0.68270  Biso   1.000  H 
  H22      1.0000 0.15600  0.89100  0.18270  Biso   1.000  H 
  H23      1.0000 0.84400  0.39100  0.31730  Biso   1.000  H 
  H24      1.0000 0.65600  0.60900  0.81730  Biso   1.000  H 
  C49      1.0000 0.31760  0.99970  0.66830  Biso   1.000  C 
  C50      1.0000 0.18240  0.00030  0.16830  Biso   1.000  C 
  C51      1.0000 0.81760  0.50030  0.33170  Biso   1.000  C 
  C52      1.0000 0.68240  0.49970  0.83170  Biso   1.000  C 
  H25      1.0000 0.31630  0.98960  0.76150  Biso   1.000  H 
  H26      1.0000 0.18370  0.01040  0.26150  Biso   1.000  H 
  H27      1.0000 0.81630  0.51040  0.23850  Biso   1.000  H 
  H28      1.0000 0.68370  0.48960  0.73850  Biso   1.000  H 
  C53      1.0000 0.30270  0.94530  0.57490  Biso   1.000  C 
  C54      1.0000 0.19730  0.05470  0.07490  Biso   1.000  C 
  C55      1.0000 0.80270  0.55470  0.42510  Biso   1.000  C 
  C56      1.0000 0.69730  0.44530  0.92510  Biso   1.000  C 
  H29      1.0000 0.28940  0.89800  0.60580  Biso   1.000  H 
  H30      1.0000 0.21060  0.10200  0.10580  Biso   1.000  H 
  H31      1.0000 0.78940  0.60200  0.39420  Biso   1.000  H 
  H32      1.0000 0.71060  0.39800  0.89420  Biso   1.000  H 
  C57      1.0000 0.30670  0.95810  0.43710  Biso   1.000  C 
  C58      1.0000 0.19330  0.04190  0.93710  Biso   1.000  C 
  C59      1.0000 0.80670  0.54190  0.56290  Biso   1.000  C 
  C60      1.0000 0.69330  0.45810  0.06290  Biso   1.000  C 
  H33      1.0000 0.29820  0.91950  0.37520  Biso   1.000  H 
  H34      1.0000 0.20180  0.08050  0.87520  Biso   1.000  H 
  H35      1.0000 0.79820  0.58050  0.62480  Biso   1.000  H 
  H36      1.0000 0.70180  0.41950  0.12480  Biso   1.000  H 
  C61      1.0000 0.32300  0.02690  0.39260  Biso   1.000  C 
  C62      1.0000 0.17700  0.97310  0.89260  Biso   1.000  C 
  C63      1.0000 0.82300  0.47310  0.60740  Biso   1.000  C 
  C64      1.0000 0.67700  0.52690  0.10740  Biso   1.000  C 
  H37      1.0000 0.32480  0.03690  0.29930  Biso   1.000  H 
  H38      1.0000 0.17520  0.96310  0.79930  Biso   1.000  H 
  H39      1.0000 0.82480  0.46310  0.70070  Biso   1.000  H 
  H40      1.0000 0.67520  0.53690  0.20070  Biso   1.000  H 
  C65      1.0000 0.20920  0.28710  0.12200  Biso   1.000  C 
  C66      1.0000 0.29080  0.71290  0.62200  Biso   1.000  C 
  C67      1.0000 0.70920  0.21290  0.87800  Biso   1.000  C 
  C68      1.0000 0.79080  0.78710  0.37800  Biso   1.000  C 
  C69      1.0000 0.24740  0.30550  0.01430  Biso   1.000  C 
  C70      1.0000 0.25260  0.69450  0.51430  Biso   1.000  C 
  C71      1.0000 0.74740  0.19450  0.98570  Biso   1.000  C 
  C72      1.0000 0.75260  0.80550  0.48570  Biso   1.000  C 
  H41      1.0000 0.29080  0.33380  0.02540  Biso   1.000  H 
  H42      1.0000 0.20920  0.66620  0.52540  Biso   1.000  H 
  H43      1.0000 0.79080  0.16620  0.97460  Biso   1.000  H 
  H44      1.0000 0.70920  0.83380  0.47460  Biso   1.000  H 
  C73      1.0000 0.22660  0.28500  0.88550  Biso   1.000  C 
  C74      1.0000 0.27340  0.71500  0.38550  Biso   1.000  C 
  C75      1.0000 0.72660  0.21500  0.11450  Biso   1.000  C 
  C76      1.0000 0.77340  0.78500  0.61450  Biso   1.000  C 
  H45      1.0000 0.25600  0.29790  0.81040  Biso   1.000  H 
  H46      1.0000 0.24400  0.70210  0.31040  Biso   1.000  H 
  H47      1.0000 0.75600  0.20210  0.18960  Biso   1.000  H 
  H48      1.0000 0.74400  0.79790  0.68960  Biso   1.000  H 
  C77      1.0000 0.16030  0.24430  0.86820  Biso   1.000  C 
  C78      1.0000 0.33970  0.75570  0.36820  Biso   1.000  C 
  C79      1.0000 0.66030  0.25570  0.13180  Biso   1.000  C 
  C80      1.0000 0.83970  0.74430  0.63180  Biso   1.000  C 
  H49      1.0000 0.14470  0.23040  0.78110  Biso   1.000  H 
  H50      1.0000 0.35530  0.76960  0.28110  Biso   1.000  H 
  H51      1.0000 0.64470  0.26960  0.21890  Biso   1.000  H 
  H52      1.0000 0.85530  0.73040  0.71890  Biso   1.000  H 
  C81      1.0000 0.12100  0.22630  0.97290  Biso   1.000  C 
  C82      1.0000 0.37900  0.77370  0.47290  Biso   1.000  C 
  C83      1.0000 0.62100  0.27370  0.02710  Biso   1.000  C 
  C84      1.0000 0.87900  0.72630  0.52710  Biso   1.000  C 
  H53      1.0000 0.07690  0.19930  0.96030  Biso   1.000  H 
  H54      1.0000 0.42310  0.80070  0.46030  Biso   1.000  H 
  H55      1.0000 0.57690  0.30070  0.03970  Biso   1.000  H 
  H56      1.0000 0.92310  0.69930  0.53970  Biso   1.000  H 
  C85      1.0000 0.14230  0.24580  0.10400  Biso   1.000  C 
  C86      1.0000 0.35770  0.75420  0.60400  Biso   1.000  C 
  C87      1.0000 0.64230  0.25420  0.89600  Biso   1.000  C 
  C88      1.0000 0.85770  0.74580  0.39600  Biso   1.000  C 
  H57      1.0000 0.11320  0.23200  0.17880  Biso   1.000  H 
  H58      1.0000 0.38680  0.76800  0.67880  Biso   1.000  H 
  H59      1.0000 0.61320  0.26800  0.82120  Biso   1.000  H 
  H60      1.0000 0.88680  0.73200  0.32120  Biso   1.000  H 
  C89      1.0000 0.19020  0.39850  0.56540  Biso   1.000  C 
  C90      1.0000 0.30980  0.60150  0.06540  Biso   1.000  C 
  C91      1.0000 0.69020  0.10150  0.43460  Biso   1.000  C 
  C92      1.0000 0.80980  0.89850  0.93460  Biso   1.000  C 
  C93      1.0000 0.12330  0.37510  0.61770  Biso   1.000  C 
  C94      1.0000 0.37670  0.62490  0.11770  Biso   1.000  C 
  C95      1.0000 0.62330  0.12490  0.38230  Biso   1.000  C 
  C96      1.0000 0.87670  0.87510  0.88230  Biso   1.000  C 
  H61      1.0000 0.09990  0.33290  0.58250  Biso   1.000  H 
  H62      1.0000 0.40010  0.66710  0.08250  Biso   1.000  H 
  H63      1.0000 0.59990  0.16710  0.41750  Biso   1.000  H 
  H64      1.0000 0.90010  0.83290  0.91750  Biso   1.000  H 
  C97      1.0000 0.09130  0.41380  0.72100  Biso   1.000  C 
  C98      1.0000 0.40870  0.58620  0.22100  Biso   1.000  C 
  C99      1.0000 0.59130  0.08620  0.27900  Biso   1.000  C 
  C100     1.0000 0.90870  0.91380  0.77900  Biso   1.000  C 
  H65      1.0000 0.04490  0.39900  0.75560  Biso   1.000  H 
  H66      1.0000 0.45510  0.60100  0.25560  Biso   1.000  H 
  H67      1.0000 0.54490  0.10100  0.24440  Biso   1.000  H 
  H68      1.0000 0.95510  0.89900  0.74440  Biso   1.000  H 
  C101     1.0000 0.12660  0.47400  0.77400  Biso   1.000  C 
  C102     1.0000 0.37340  0.52600  0.27400  Biso   1.000  C 
  C103     1.0000 0.62660  0.02600  0.22600  Biso   1.000  C 
  C104     1.0000 0.87340  0.97400  0.72600  Biso   1.000  C 
  H69      1.0000 0.10530  0.49930  0.84760  Biso   1.000  H 
  H70      1.0000 0.39470  0.50070  0.34760  Biso   1.000  H 
  H71      1.0000 0.60530  0.00070  0.15240  Biso   1.000  H 
  H72      1.0000 0.89470  0.99930  0.65240  Biso   1.000  H 
  C105     1.0000 0.19320  0.49820  0.72070  Biso   1.000  C 
  C106     1.0000 0.30680  0.50180  0.22070  Biso   1.000  C 
  C107     1.0000 0.69320  0.00180  0.27930  Biso   1.000  C 
  C108     1.0000 0.80680  0.99820  0.77930  Biso   1.000  C 
  H73      1.0000 0.21660  0.54040  0.75610  Biso   1.000  H 
  H74      1.0000 0.28340  0.45960  0.25610  Biso   1.000  H 
  H75      1.0000 0.71660  0.95960  0.24390  Biso   1.000  H 
  H76      1.0000 0.78340  0.04040  0.74390  Biso   1.000  H 
  C109     1.0000 0.22500  0.46000  0.61510  Biso   1.000  C 
  C110     1.0000 0.27500  0.54000  0.11510  Biso   1.000  C 
  C111     1.0000 0.72500  0.04000  0.38490  Biso   1.000  C 
  C112     1.0000 0.77500  0.96000  0.88490  Biso   1.000  C 
  H77      1.0000 0.27030  0.47590  0.57760  Biso   1.000  H 
  H78      1.0000 0.22970  0.52410  0.07760  Biso   1.000  H 
  H79      1.0000 0.77030  0.02410  0.42240  Biso   1.000  H 
  H80      1.0000 0.72970  0.97590  0.92240  Biso   1.000  H 
  O17      1.0000 0.52120  0.00671  0.67870  Biso   1.000  O 
  O18      1.0000 0.97880  0.99329  0.17870  Biso   1.000  O 
  O19      1.0000 0.02120  0.49329  0.32130  Biso   1.000  O 
  O20      1.0000 0.47880  0.50671  0.82130  Biso   1.000  O 
  C113     1.0000 0.57570  0.96950  0.75600  Biso   1.000  C 
  C114     1.0000 0.92430  0.03050  0.25600  Biso   1.000  C 
  C115     1.0000 0.07570  0.53050  0.24400  Biso   1.000  C 
  C116     1.0000 0.42430  0.46950  0.74400  Biso   1.000  C 
  H81      1.0000 0.55260  0.94070  0.82860  Biso   1.000  H 
  H82      1.0000 0.94740  0.05930  0.32860  Biso   1.000  H 
  H83      1.0000 0.05260  0.55930  0.17140  Biso   1.000  H 
  H84      1.0000 0.44740  0.44070  0.67140  Biso   1.000  H 
  H85      1.0000 0.61070  0.00470  0.79620  Biso   1.000  H 
  H86      1.0000 0.88930  0.99530  0.29620  Biso   1.000  H 
  H87      1.0000 0.11070  0.49530  0.20380  Biso   1.000  H 
  H88      1.0000 0.38930  0.50470  0.70380  Biso   1.000  H 
  C117     1.0000 0.61430  0.92040  0.65950  Biso   1.000  C 
  C118     1.0000 0.88570  0.07960  0.15950  Biso   1.000  C 
  C119     1.0000 0.11430  0.57960  0.34050  Biso   1.000  C 
  C120     1.0000 0.38570  0.42040  0.84050  Biso   1.000  C 
  H89      1.0000 0.62760  0.87350  0.70280  Biso   1.000  H 
  H90      1.0000 0.87240  0.12650  0.20280  Biso   1.000  H 
  H91      1.0000 0.12760  0.62650  0.29720  Biso   1.000  H 
  H92      1.0000 0.37240  0.37350  0.79720  Biso   1.000  H 
  H93      1.0000 0.65960  0.94380  0.62520  Biso   1.000  H 
  H94      1.0000 0.84040  0.05620  0.12520  Biso   1.000  H 
  H95      1.0000 0.15960  0.55620  0.37480  Biso   1.000  H 
  H96      1.0000 0.34040  0.44380  0.87480  Biso   1.000  H 
  C121     1.0000 0.55970  0.90810  0.54750  Biso   1.000  C 
  C122     1.0000 0.94030  0.09190  0.04750  Biso   1.000  C 
  C123     1.0000 0.05970  0.59190  0.45250  Biso   1.000  C 
  C124     1.0000 0.44030  0.40810  0.95250  Biso   1.000  C 
  H97      1.0000 0.58410  0.91300  0.45920  Biso   1.000  H 
  H98      1.0000 0.91590  0.08700  0.95920  Biso   1.000  H 
  H99      1.0000 0.08410  0.58700  0.54080  Biso   1.000  H 
  H100     1.0000 0.41590  0.41300  0.04080  Biso   1.000  H 
  H101     1.0000 0.53770  0.85880  0.55400  Biso   1.000  H 
  H102     1.0000 0.96230  0.14120  0.05400  Biso   1.000  H 
  H103     1.0000 0.03770  0.64120  0.44600  Biso   1.000  H 
  H104     1.0000 0.46230  0.35880  0.94600  Biso   1.000  H 
  C125     1.0000 0.50420  0.96380  0.56430  Biso   1.000  C 
  C126     1.0000 0.99580  0.03620  0.06430  Biso   1.000  C 
  C127     1.0000 0.00420  0.53620  0.43570  Biso   1.000  C 
  C128     1.0000 0.49580  0.46380  0.93570  Biso   1.000  C 
  H105     1.0000 0.50250  0.99530  0.48370  Biso   1.000  H 
  H106     1.0000 0.99750  0.00470  0.98370  Biso   1.000  H 
  H107     1.0000 0.00250  0.50470  0.51630  Biso   1.000  H 
  H108     1.0000 0.49750  0.49530  0.01630  Biso   1.000  H 
  H109     1.0000 0.45540  0.94070  0.57570  Biso   1.000  H 
  H110     1.0000 0.04460  0.05930  0.07570  Biso   1.000  H 
  H111     1.0000 0.95540  0.55930  0.42430  Biso   1.000  H 
  H112     1.0000 0.54460  0.44070  0.92430  Biso   1.000  H 
  O21      1.0000 0.47070  0.13780  0.84030  Biso   1.000  O 
  O22      1.0000 0.02930  0.86220  0.34030  Biso   1.000  O 
  O23      1.0000 0.97070  0.36220  0.15970  Biso   1.000  O 
  O24      1.0000 0.52930  0.63780  0.65970  Biso   1.000  O 
  C129     1.0000 0.46800  0.08850  0.94920  Biso   1.000  C 
  C130     1.0000 0.03200  0.91150  0.44920  Biso   1.000  C 
  C131     1.0000 0.96800  0.41150  0.05080  Biso   1.000  C 
  C132     1.0000 0.53200  0.58850  0.55080  Biso   1.000  C 
  H113     1.0000 0.51760  0.08240  0.98880  Biso   1.000  H 
  H114     1.0000 0.98240  0.91760  0.48880  Biso   1.000  H 
  H115     1.0000 0.01760  0.41760  0.01120  Biso   1.000  H 
  H116     1.0000 0.48240  0.58240  0.51120  Biso   1.000  H 
  H117     1.0000 0.45010  0.04010  0.91910  Biso   1.000  H 
  H118     1.0000 0.04990  0.95990  0.41910  Biso   1.000  H 
  H119     1.0000 0.95010  0.45990  0.08090  Biso   1.000  H 
  H120     1.0000 0.54990  0.54010  0.58090  Biso   1.000  H 
  C133     1.0000 0.41610  0.12080  0.05040  Biso   1.000  C 
  C134     1.0000 0.08390  0.87920  0.55040  Biso   1.000  C 
  C135     1.0000 0.91610  0.37920  0.94960  Biso   1.000  C 
  C136     1.0000 0.58390  0.62080  0.44960  Biso   1.000  C 
  H121     1.0000 0.36400  0.11320  0.02520  Biso   1.000  H 
  H122     1.0000 0.13600  0.88680  0.52520  Biso   1.000  H 
  H123     1.0000 0.86400  0.38680  0.97480  Biso   1.000  H 
  H124     1.0000 0.63600  0.61320  0.47480  Biso   1.000  H 
  H125     1.0000 0.42480  0.10130  0.14150  Biso   1.000  H 
  H126     1.0000 0.07520  0.89870  0.64150  Biso   1.000  H 
  H127     1.0000 0.92480  0.39870  0.85850  Biso   1.000  H 
  H128     1.0000 0.57520  0.60130  0.35850  Biso   1.000  H 
  C137     1.0000 0.43820  0.19820  0.03860  Biso   1.000  C 
  C138     1.0000 0.06180  0.80180  0.53860  Biso   1.000  C 
  C139     1.0000 0.93820  0.30180  0.96140  Biso   1.000  C 
  C140     1.0000 0.56180  0.69820  0.46140  Biso   1.000  C 
  H129     1.0000 0.48370  0.20810  0.09020  Biso   1.000  H 
  H130     1.0000 0.01630  0.79190  0.59020  Biso   1.000  H 
  H131     1.0000 0.98370  0.29190  0.90980  Biso   1.000  H 
  H132     1.0000 0.51630  0.70810  0.40980  Biso   1.000  H 
  H133     1.0000 0.39870  0.23120  0.07000  Biso   1.000  H 
  H134     1.0000 0.10130  0.76880  0.57000  Biso   1.000  H 
  H135     1.0000 0.89870  0.26880  0.93000  Biso   1.000  H 
  H136     1.0000 0.60130  0.73120  0.43000  Biso   1.000  H 
  C141     1.0000 0.45120  0.20660  0.89040  Biso   1.000  C 
  C142     1.0000 0.04880  0.79340  0.39040  Biso   1.000  C 
  C143     1.0000 0.95120  0.29340  0.10960  Biso   1.000  C 
  C144     1.0000 0.54880  0.70660  0.60960  Biso   1.000  C 
  H137     1.0000 0.40590  0.22440  0.84580  Biso   1.000  H 
  H138     1.0000 0.09410  0.77560  0.34580  Biso   1.000  H 
  H139     1.0000 0.90590  0.27560  0.15420  Biso   1.000  H 
  H140     1.0000 0.59410  0.72440  0.65420  Biso   1.000  H 
  H141     1.0000 0.49120  0.24220  0.87380  Biso   1.000  H 
  H142     1.0000 0.00880  0.75780  0.37380  Biso   1.000  H 
  H143     1.0000 0.99120  0.25780  0.12620  Biso   1.000  H 
  H144     1.0000 0.50880  0.74220  0.62620  Biso   1.000  H 
  Li1      1.0000 0.52180  0.11340  0.67120  Biso   1.000  Li
  Li2      1.0000 0.97820  0.88660  0.17120  Biso   1.000  Li
  Li3      1.0000 0.02180  0.38660  0.32880  Biso   1.000  Li
  Li4      1.0000 0.47820  0.61340  0.82880  Biso   1.000  Li
