data_image0
_cell_length_a       11.231
_cell_length_b       17.306
_cell_length_c       18.321
_cell_angle_alpha    90
_cell_angle_beta     98.63
_cell_angle_gamma    90

_symmetry_space_group_name_H-M    "P 1"
_symmetry_int_tables_number       1

loop_
  _symmetry_equiv_pos_as_xyz
  'x, y, z'

loop_
  _atom_site_label
  _atom_site_occupancy
  _atom_site_fract_x
  _atom_site_fract_y
  _atom_site_fract_z
  _atom_site_thermal_displace_type
  _atom_site_B_iso_or_equiv
  _atom_site_type_symbol
  Dy1      1.0000 0.80120  0.86480  0.73980  Biso   1.000  Dy
  O1       1.0000 0.79340  0.83530  0.61550  Biso   1.000  O 
  C1       1.0000 0.86220  0.80110  0.57840  Biso   1.000  C 
  C2       1.0000 0.83200  0.81530  0.49620  Biso   1.000  C 
  F1       1.0000 0.88400  0.76970  0.45520  Biso   1.000  F 
  F2       1.0000 0.72450  0.82020  0.47300  Biso   1.000  F 
  F3       1.0000 0.87730  0.88330  0.48320  Biso   1.000  F 
  C3       1.0000 0.95750  0.75110  0.60530  Biso   1.000  C 
  C4       1.0000 0.98820  0.73680  0.67880  Biso   1.000  C 
  C5       1.0000 0.08360  0.67630  0.70430  Biso   1.000  C 
  F4       1.0000 0.15320  0.69450  0.76380  Biso   1.000  F 
  F5       1.0000 0.14970  0.65780  0.65400  Biso   1.000  F 
  F6       1.0000 0.02780  0.61100  0.71950  Biso   1.000  F 
  O2       1.0000 0.94360  0.76610  0.73130  Biso   1.000  O 
  H1       1.0000 0.00750  0.72330  0.56670  Biso   1.000  H 
  O3       1.0000 0.95780  0.93690  0.70170  Biso   1.000  O 
  C6       1.0000 0.06060  0.95650  0.73210  Biso   1.000  C 
  C7       1.0000 0.11270  0.94560  0.80190  Biso   1.000  C 
  H2       1.0000 0.20500  0.96330  0.81830  Biso   1.000  H 
  C8       1.0000 0.05030  0.91230  0.85350  Biso   1.000  C 
  C9       1.0000 0.11400  0.90630  0.93450  Biso   1.000  C 
  F7       1.0000 0.13420  0.97600  0.95980  Biso   1.000  F 
  F8       1.0000 0.21390  0.92620  0.94710  Biso   1.000  F 
  F9       1.0000 0.10270  0.84100  0.96360  Biso   1.000  F 
  O4       1.0000 0.94490  0.88630  0.84260  Biso   1.000  O 
  C10      1.0000 0.12740  0.00180  0.67590  Biso   1.000  C 
  F10      1.0000 0.08430  0.07450  0.67270  Biso   1.000  F 
  F11      1.0000 0.24370  0.01090  0.70330  Biso   1.000  F 
  F12      1.0000 0.11930  0.97080  0.61240  Biso   1.000  F 
  O5       1.0000 0.72530  0.98860  0.71010  Biso   1.000  O 
  N1       1.0000 0.72600  0.05860  0.68520  Biso   1.000  N 
  C11      1.0000 0.67880  0.07760  0.60680  Biso   1.000  C 
  C12      1.0000 0.73060  0.02560  0.55640  Biso   1.000  C 
  H3       1.0000 0.82740  0.03170  0.56510  Biso   1.000  H 
  H4       1.0000 0.69540  0.04040  0.50010  Biso   1.000  H 
  H5       1.0000 0.70730  0.96650  0.56710  Biso   1.000  H 
  C13      1.0000 0.70550  0.16390  0.60390  Biso   1.000  C 
  C14      1.0000 0.81810  0.18010  0.57010  Biso   1.000  C 
  H6       1.0000 0.80070  0.16800  0.51160  Biso   1.000  H 
  H7       1.0000 0.89080  0.14400  0.59590  Biso   1.000  H 
  H8       1.0000 0.84280  0.24010  0.57850  Biso   1.000  H 
  C15      1.0000 0.60490  0.21590  0.57270  Biso   1.000  C 
  H9       1.0000 0.52890  0.20630  0.60130  Biso   1.000  H 
  H10      1.0000 0.57930  0.20360  0.51470  Biso   1.000  H 
  H11      1.0000 0.63350  0.27540  0.57960  Biso   1.000  H 
  N2       1.0000 0.73900  0.18260  0.68490  Biso   1.000  N 
  C16      1.0000 0.75260  0.12040  0.72670  Biso   1.000  C 
  C17      1.0000 0.79180  0.11950  0.81020  Biso   1.000  C 
  C18      1.0000 0.91570  0.11710  0.82850  Biso   1.000  C 
  H12      1.0000 0.94000  0.11650  0.88780  Biso   1.000  H 
  H13      1.0000 0.95459  0.16795  0.80618  Biso   1.000  H 
  H14      1.0000 0.95000  0.06580  0.80540  Biso   1.000  H 
  H15      1.0000 0.75832  0.17150  0.83375  Biso   1.000  H 
  H16      1.0000 0.75352  0.06879  0.83314  Biso   1.000  H 
  O6       1.0000 0.76470  0.25230  0.70710  Biso   1.000  O 
  Dy2      1.0000 0.69880  0.36480  0.76020  Biso   1.000  Dy
  O7       1.0000 0.55640  0.26610  0.76870  Biso   1.000  O 
  C19      1.0000 0.51180  0.23680  0.82120  Biso   1.000  C 
  C20      1.0000 0.41640  0.17630  0.79570  Biso   1.000  C 
  F13      1.0000 0.34680  0.19450  0.73620  Biso   1.000  F 
  F14      1.0000 0.47220  0.11100  0.78050  Biso   1.000  F 
  F15      1.0000 0.35030  0.15780  0.84600  Biso   1.000  F 
  C21      1.0000 0.54250  0.25110  0.89470  Biso   1.000  C 
  H17      1.0000 0.49250  0.22330  0.93330  Biso   1.000  H 
  C22      1.0000 0.63780  0.30110  0.92160  Biso   1.000  C 
  C23      1.0000 0.66800  0.31530  0.00380  Biso   1.000  C 
  F16      1.0000 0.61600  0.26970  0.04480  Biso   1.000  F 
  F17      1.0000 0.62270  0.38330  0.01680  Biso   1.000  F 
  F18      1.0000 0.77550  0.32020  0.02700  Biso   1.000  F 
  O8       1.0000 0.70660  0.33530  0.88450  Biso   1.000  O 
  O9       1.0000 0.54220  0.43690  0.79830  Biso   1.000  O 
  C24      1.0000 0.43940  0.45650  0.76790  Biso   1.000  C 
  C25      1.0000 0.38730  0.44560  0.69810  Biso   1.000  C 
  H18      1.0000 0.29500  0.46330  0.68170  Biso   1.000  H 
  C26      1.0000 0.44970  0.41230  0.64650  Biso   1.000  C 
  C27      1.0000 0.38600  0.40630  0.56550  Biso   1.000  C 
  F19      1.0000 0.36580  0.47600  0.54020  Biso   1.000  F 
  F20      1.0000 0.28610  0.42620  0.55290  Biso   1.000  F 
  F21      1.0000 0.39730  0.34100  0.53640  Biso   1.000  F 
  O10      1.0000 0.55510  0.38630  0.65740  Biso   1.000  O 
  C28      1.0000 0.37260  0.50180  0.82410  Biso   1.000  C 
  F22      1.0000 0.38070  0.47080  0.88760  Biso   1.000  F 
  F23      1.0000 0.25630  0.51090  0.79670  Biso   1.000  F 
  F24      1.0000 0.41570  0.57450  0.82730  Biso   1.000  F 
  O11      1.0000 0.80450  0.40370  0.66550  Biso   1.000  O 
  C29      1.0000 0.91100  0.40340  0.65670  Biso   1.000  C 
  C30      1.0000 0.93560  0.43350  0.58250  Biso   1.000  C 
  F25      1.0000 0.86080  0.40250  0.53150  Biso   1.000  F 
  F26      1.0000 0.91560  0.50270  0.57460  Biso   1.000  F 
  F27      1.0000 0.03510  0.41080  0.56200  Biso   1.000  F 
  C31      1.0000 0.00960  0.37820  0.70740  Biso   1.000  C 
  H19      1.0000 0.09810  0.37880  0.69100  Biso   1.000  H 
  C32      1.0000 0.99820  0.35270  0.77740  Biso   1.000  C 
  C33      1.0000 0.10860  0.32890  0.83090  Biso   1.000  C 
  F28      1.0000 0.09630  0.24970  0.84380  Biso   1.000  F 
  F29      1.0000 0.21900  0.34200  0.79770  Biso   1.000  F 
  F30      1.0000 0.12760  0.38790  0.88260  Biso   1.000  F 
  O12      1.0000 0.90310  0.34740  0.80530  Biso   1.000  O 
  O13      1.0000 0.77470  0.48860  0.78990  Biso   1.000  O 
  N3       1.0000 0.77400  0.55860  0.81480  Biso   1.000  N 
  C34      1.0000 0.74740  0.62040  0.77330  Biso   1.000  C 
  C35      1.0000 0.70820  0.61950  0.68980  Biso   1.000  C 
  H20      1.0000 0.74648  0.56879  0.66686  Biso   1.000  H 
  H21      1.0000 0.74168  0.67150  0.66625  Biso   1.000  H 
  C36      1.0000 0.58430  0.61710  0.67150  Biso   1.000  C 
  H22      1.0000 0.54541  0.66795  0.69382  Biso   1.000  H 
  H23      1.0000 0.55000  0.56580  0.69460  Biso   1.000  H 
  H24      1.0000 0.56000  0.61650  0.61220  Biso   1.000  H 
  N4       1.0000 0.76100  0.68260  0.81510  Biso   1.000  N 
  C37      1.0000 0.79450  0.66390  0.89610  Biso   1.000  C 
  C38      1.0000 0.68190  0.68010  0.92990  Biso   1.000  C 
  H25      1.0000 0.60920  0.64400  0.90410  Biso   1.000  H 
  H26      1.0000 0.69930  0.66800  0.98840  Biso   1.000  H 
  H27      1.0000 0.65720  0.74010  0.92150  Biso   1.000  H 
  C39      1.0000 0.89510  0.71590  0.92730  Biso   1.000  C 
  H28      1.0000 0.86650  0.77540  0.92040  Biso   1.000  H 
  H29      1.0000 0.97110  0.70630  0.89870  Biso   1.000  H 
  H30      1.0000 0.92070  0.70360  0.98530  Biso   1.000  H 
  C40      1.0000 0.82120  0.57760  0.89320  Biso   1.000  C 
  C41      1.0000 0.95880  0.56240  0.90010  Biso   1.000  C 
  H31      1.0000 0.99690  0.59920  0.86200  Biso   1.000  H 
  H32      1.0000 0.97400  0.50270  0.88730  Biso   1.000  H 
  H33      1.0000 0.00100  0.57490  0.95580  Biso   1.000  H 
  C42      1.0000 0.76940  0.52560  0.94360  Biso   1.000  C 
  H34      1.0000 0.79270  0.46650  0.93290  Biso   1.000  H 
  H35      1.0000 0.80460  0.54040  0.99990  Biso   1.000  H 
  H36      1.0000 0.67260  0.53170  0.93490  Biso   1.000  H 
  O14      1.0000 0.73530  0.75230  0.79290  Biso   1.000  O 
  C43      1.0000 0.54120  0.06240  0.59990  Biso   1.000  C 
  H37      1.0000 0.49900  0.07490  0.54420  Biso   1.000  H 
  H38      1.0000 0.50310  0.09920  0.63800  Biso   1.000  H 
  H39      1.0000 0.52600  0.00270  0.61270  Biso   1.000  H 
  O15      1.0000 0.59690  0.84740  0.69470  Biso   1.000  O 
  C44      1.0000 0.50180  0.85270  0.72260  Biso   1.000  C 
  C45      1.0000 0.39140  0.82890  0.66910  Biso   1.000  C 
  F31      1.0000 0.40370  0.74970  0.65620  Biso   1.000  F 
  F32      1.0000 0.28100  0.84200  0.70230  Biso   1.000  F 
  F33      1.0000 0.37240  0.88790  0.61740  Biso   1.000  F 
  C46      1.0000 0.49040  0.87820  0.79260  Biso   1.000  C 
  H40      1.0000 0.40190  0.87880  0.80900  Biso   1.000  H 
  C47      1.0000 0.58900  0.90340  0.84330  Biso   1.000  C 
  C48      1.0000 0.56440  0.93350  0.91750  Biso   1.000  C 
  F34      1.0000 0.46490  0.91080  0.93800  Biso   1.000  F 
  F35      1.0000 0.63920  0.90250  0.96850  Biso   1.000  F 
  F36      1.0000 0.58440  0.00270  0.92540  Biso   1.000  F 
  O16      1.0000 0.69550  0.90370  0.83450  Biso   1.000  O 
