data_image0
_cell_length_a       7.222
_cell_length_b       7.172
_cell_length_c       15.172
_cell_angle_alpha    90
_cell_angle_beta     105.405
_cell_angle_gamma    90

_symmetry_space_group_name_H-M    "P 1"
_symmetry_int_tables_number       1

loop_
  _symmetry_equiv_pos_as_xyz
  'x, y, z'

loop_
  _atom_site_label
  _atom_site_occupancy
  _atom_site_fract_x
  _atom_site_fract_y
  _atom_site_fract_z
  _atom_site_thermal_displace_type
  _atom_site_B_iso_or_equiv
  _atom_site_type_symbol
  In1      1.0000 0.50000  0.35210  0.25000  Biso   1.000  In
  C1       1.0000 0.22230  0.60500  0.19460  Biso   1.000  C 
  C2       1.0000 0.06120  0.73620  0.14962  Biso   1.000  C 
  C3       1.0000 0.00090  0.72940  0.05410  Biso   1.000  C 
  C4       1.0000 0.85260  0.83990  0.00500  Biso   1.000  C 
  C5       1.0000 0.76540  0.96070  0.05219  Biso   1.000  C 
  C6       1.0000 0.82150  0.97220  0.14749  Biso   1.000  C 
  C7       1.0000 0.97090  0.85670  0.19844  Biso   1.000  C 
  C8       1.0000 0.02910  0.85670  0.30156  Biso   1.000  C 
  C9       1.0000 0.93880  0.73620  0.35038  Biso   1.000  C 
  C10      1.0000 0.77770  0.60500  0.30540  Biso   1.000  C 
  O1       1.0000 0.72260  0.58180  0.22187  Biso   1.000  O 
  O2       1.0000 0.70020  0.51200  0.35764  Biso   1.000  O 
  C11      1.0000 0.99910  0.72940  0.44590  Biso   1.000  C 
  H1       1.0000 0.93790  0.64860  0.47700  Biso   1.000  H 
  C12      1.0000 0.14740  0.83990  0.49500  Biso   1.000  C 
  C13      1.0000 0.23460  0.96070  0.44781  Biso   1.000  C 
  C14      1.0000 0.17850  0.97220  0.35251  Biso   1.000  C 
  C15      1.0000 0.28660  0.10850  0.31013  Biso   1.000  C 
  O3       1.0000 0.41140  0.21200  0.36329  Biso   1.000  O 
  O4       1.0000 0.26230  0.12440  0.22633  Biso   1.000  O 
  H2       1.0000 0.33370  0.03670  0.48030  Biso   1.000  H 
  H3       1.0000 0.18750  0.83300  0.55850  Biso   1.000  H 
  C16      1.0000 0.71340  0.10850  0.18987  Biso   1.000  C 
  O5       1.0000 0.58860  0.21200  0.13671  Biso   1.000  O 
  O6       1.0000 0.73770  0.12440  0.27367  Biso   1.000  O 
  H4       1.0000 0.66630  0.03670  0.01970  Biso   1.000  H 
  H5       1.0000 0.81250  0.83300  0.94150  Biso   1.000  H 
  H6       1.0000 0.06210  0.64860  0.02300  Biso   1.000  H 
  O7       1.0000 0.27740  0.58180  0.27813  Biso   1.000  O 
  O8       1.0000 0.29980  0.51200  0.14236  Biso   1.000  O 
