data_image0
_cell_length_a       15.692
_cell_length_b       16.14
_cell_length_c       20.812
_cell_angle_alpha    92.159
_cell_angle_beta     97.23
_cell_angle_gamma    118.277

_symmetry_space_group_name_H-M    "P 1"
_symmetry_int_tables_number       1

loop_
  _symmetry_equiv_pos_as_xyz
  'x, y, z'

loop_
  _atom_site_label
  _atom_site_occupancy
  _atom_site_fract_x
  _atom_site_fract_y
  _atom_site_fract_z
  _atom_site_thermal_displace_type
  _atom_site_B_iso_or_equiv
  _atom_site_type_symbol
  Ag1      1.0000 0.43573  0.66247  0.25849  Biso   1.000  Ag
  N1       1.0000 0.36000  0.59020  0.15420  Biso   1.000  N 
  C1       1.0000 0.26470  0.55250  0.13170  Biso   1.000  C 
  S1       1.0000 0.19739  0.56850  0.18865  Biso   1.000  S 
  C2       1.0000 0.08020  0.52060  0.13760  Biso   1.000  C 
  N2       1.0000 0.05940  0.58270  0.10830  Biso   1.000  N 
  Ag2      1.0000 0.16255  0.73880  0.13106  Biso   1.000  Ag
  H1       1.0000 0.09738  0.76750  0.05690  Biso   1.000  H 
  O1       1.0000 0.03410  0.76750  0.05690  Biso   1.000  O 
  H2       1.0000 0.03519  0.82085  0.03409  Biso   1.000  H 
  O2       1.0000 0.26180  0.73680  0.03460  Biso   1.000  O 
  S2       1.0000 0.32890  0.81669  0.00767  Biso   1.000  S 
  O3       1.0000 0.39250  0.89720  0.05370  Biso   1.000  O 
  O4       1.0000 0.28530  0.83210  0.94700  Biso   1.000  O 
  C3       1.0000 0.40820  0.78040  0.97620  Biso   1.000  C 
  F1       1.0000 0.46220  0.76320  0.02290  Biso   1.000  F 
  F2       1.0000 0.35830  0.69990  0.93750  Biso   1.000  F 
  F3       1.0000 0.47120  0.84420  0.94520  Biso   1.000  F 
  N3       1.0000 0.26030  0.89400  0.16410  Biso   1.000  N 
  C4       1.0000 0.23600  0.96320  0.15470  Biso   1.000  C 
  H3       1.0000 0.17190  0.94660  0.13680  Biso   1.000  H 
  C5       1.0000 0.30220  0.05580  0.17070  Biso   1.000  C 
  H4       1.0000 0.28420  0.10260  0.16510  Biso   1.000  H 
  C6       1.0000 0.39550  0.07810  0.19510  Biso   1.000  C 
  H5       1.0000 0.44180  0.14160  0.20570  Biso   1.000  H 
  N4       1.0000 0.42400  0.01270  0.20460  Biso   1.000  N 
  Ag3      1.0000 0.59041  0.04450  0.23170  Biso   1.000  Ag
  N5       1.0000 0.70500  0.20460  0.22880  Biso   1.000  N 
  C7       1.0000 0.68190  0.27470  0.22380  Biso   1.000  C 
  H6       1.0000 0.61640  0.25990  0.22030  Biso   1.000  H 
  C8       1.0000 0.75020  0.36580  0.22370  Biso   1.000  C 
  H7       1.0000 0.73300  0.41350  0.22060  Biso   1.000  H 
  C9       1.0000 0.84500  0.38520  0.22820  Biso   1.000  C 
  H8       1.0000 0.89300  0.44750  0.22760  Biso   1.000  H 
  N6       1.0000 0.87280  0.31770  0.23370  Biso   1.000  N 
  C10      1.0000 0.79980  0.23120  0.23470  Biso   1.000  C 
  S3       1.0000 0.83353  0.13978  0.23980  Biso   1.000  S 
  C11      1.0000 0.84750  0.13720  0.32480  Biso   1.000  C 
  N7       1.0000 0.83990  0.19950  0.36340  Biso   1.000  N 
  C12      1.0000 0.84840  0.19020  0.42700  Biso   1.000  C 
  H9       1.0000 0.84320  0.23240  0.45580  Biso   1.000  H 
  C13      1.0000 0.86490  0.11940  0.45110  Biso   1.000  C 
  H10      1.0000 0.86990  0.11290  0.49550  Biso   1.000  H 
  C14      1.0000 0.87380  0.05920  0.40750  Biso   1.000  C 
  H11      1.0000 0.88660  0.01220  0.42280  Biso   1.000  H 
  N8       1.0000 0.86440  0.06650  0.34320  Biso   1.000  N 
  Ag4      1.0000 0.88640  0.97045  0.26923  Biso   1.000  Ag
  O5       1.0000 0.85490  0.96950  0.15050  Biso   1.000  O 
  S4       1.0000 0.86150  0.90200  0.10767  Biso   1.000  S 
  C15      1.0000 0.73530  0.81970  0.07060  Biso   1.000  C 
  F4       1.0000 0.73410  0.74530  0.03470  Biso   1.000  F 
  F5       1.0000 0.68130  0.78380  0.11280  Biso   1.000  F 
  F6       1.0000 0.69850  0.85820  0.03210  Biso   1.000  F 
  O6       1.0000 0.90520  0.93930  0.05340  Biso   1.000  O 
  O7       1.0000 0.89510  0.84390  0.14100  Biso   1.000  O 
  N9       1.0000 0.77140  0.80820  0.26530  Biso   1.000  N 
  C16      1.0000 0.79400  0.73800  0.26990  Biso   1.000  C 
  H12      1.0000 0.85970  0.75300  0.27610  Biso   1.000  H 
  C17      1.0000 0.72500  0.64650  0.26590  Biso   1.000  C 
  H13      1.0000 0.74190  0.59860  0.26780  Biso   1.000  H 
  C18      1.0000 0.62990  0.62670  0.25920  Biso   1.000  C 
  H14      1.0000 0.58140  0.56420  0.25810  Biso   1.000  H 
  N10      1.0000 0.60340  0.69460  0.25390  Biso   1.000  N 
  C19      1.0000 0.67740  0.78180  0.25740  Biso   1.000  C 
  S5       1.0000 0.64458  0.87274  0.24217  Biso   1.000  S 
  C20      1.0000 0.62730  0.90050  0.32020  Biso   1.000  C 
  N11      1.0000 0.63440  0.85260  0.36890  Biso   1.000  N 
  C21      1.0000 0.61960  0.88030  0.42580  Biso   1.000  C 
  C22      1.0000 0.59890  0.95240  0.43460  Biso   1.000  C 
  H15      1.0000 0.58840  0.96980  0.47470  Biso   1.000  H 
  C23      1.0000 0.59430  0.99830  0.38070  Biso   1.000  C 
  H16      1.0000 0.58060  0.04820  0.38490  Biso   1.000  H 
  N12      1.0000 0.60870  0.97380  0.32300  Biso   1.000  N 
  H17      1.0000 0.62380  0.84850  0.46140  Biso   1.000  H 
  N13      1.0000 0.04810  0.99890  0.28290  Biso   1.000  N 
  C24      1.0000 0.07570  0.93190  0.28910  Biso   1.000  C 
  H18      1.0000 0.02760  0.86870  0.28060  Biso   1.000  H 
  C25      1.0000 0.16990  0.95220  0.30720  Biso   1.000  C 
  H19      1.0000 0.18710  0.90450  0.30980  Biso   1.000  H 
  C26      1.0000 0.23950  0.04580  0.32160  Biso   1.000  C 
  H20      1.0000 0.30450  0.06170  0.33590  Biso   1.000  H 
  N14      1.0000 0.21530  0.11460  0.31520  Biso   1.000  N 
  C27      1.0000 0.12120  0.08760  0.29410  Biso   1.000  C 
  S6       1.0000 0.09048  0.17934  0.28071  Biso   1.000  S 
  C28      1.0000 0.09730  0.18210  0.19640  Biso   1.000  C 
  N15      1.0000 0.08130  0.24920  0.17090  Biso   1.000  N 
  C29      1.0000 0.08680  0.25630  0.10750  Biso   1.000  C 
  C30      1.0000 0.10640  0.19700  0.07120  Biso   1.000  C 
  C31      1.0000 0.11990  0.12950  0.10270  Biso   1.000  C 
  H21      1.0000 0.13160  0.08730  0.07850  Biso   1.000  H 
  N16      1.0000 0.11710  0.12160  0.16540  Biso   1.000  N 
  H22      1.0000 0.11050  0.20200  0.02720  Biso   1.000  H 
  H23      1.0000 0.07710  0.30260  0.08780  Biso   1.000  H 
  Ag5      1.0000 0.04148  0.34637  0.22842  Biso   1.000  Ag
  N17      1.0000 0.02210  0.42810  0.13330  Biso   1.000  N 
  C32      1.0000 0.93630  0.39360  0.09250  Biso   1.000  C 
  H24      1.0000 0.89430  0.32870  0.08730  Biso   1.000  H 
  C33      1.0000 0.90820  0.44980  0.05850  Biso   1.000  C 
  H25      1.0000 0.84930  0.42470  0.02970  Biso   1.000  H 
  C34      1.0000 0.97290  0.54670  0.06940  Biso   1.000  C 
  H26      1.0000 0.95510  0.58770  0.04880  Biso   1.000  H 
  N18      1.0000 0.11690  0.41040  0.33360  Biso   1.000  N 
  C35      1.0000 0.06060  0.41060  0.37700  Biso   1.000  C 
  C36      1.0000 0.09810  0.44050  0.44170  Biso   1.000  C 
  H27      1.0000 0.05860  0.43800  0.47220  Biso   1.000  H 
  C37      1.0000 0.19810  0.47480  0.45910  Biso   1.000  C 
  H28      1.0000 0.22600  0.49820  0.50240  Biso   1.000  H 
  N19      1.0000 0.25580  0.47630  0.41780  Biso   1.000  N 
  C38      1.0000 0.21220  0.44470  0.35670  Biso   1.000  C 
  S7       1.0000 0.28231  0.44240  0.29691  Biso   1.000  S 
  C39      1.0000 0.39770  0.48840  0.34910  Biso   1.000  C 
  N20      1.0000 0.45730  0.58110  0.35550  Biso   1.000  N 
  C40      1.0000 0.54140  0.61360  0.39790  Biso   1.000  C 
  H29      1.0000 0.58460  0.67830  0.40420  Biso   1.000  H 
  C41      1.0000 0.56580  0.55530  0.43190  Biso   1.000  C 
  H30      1.0000 0.62270  0.57910  0.46260  Biso   1.000  H 
  C42      1.0000 0.50270  0.46030  0.41880  Biso   1.000  C 
  H31      1.0000 0.51930  0.41860  0.43940  Biso   1.000  H 
  N21      1.0000 0.41830  0.42510  0.37760  Biso   1.000  N 
  Ag6      1.0000 0.32070  0.26962  0.34576  Biso   1.000  Ag
  O8       1.0000 0.45130  0.22290  0.38670  Biso   1.000  O 
  S8       1.0000 0.51920  0.20070  0.40330  Biso   1.000  S 
  F7       1.0000 0.63600  0.23590  0.34920  Biso   1.000  F 
  C43      1.0000 0.63410  0.28870  0.40360  Biso   1.000  C 
  F8       1.0000 0.71010  0.29490  0.43640  Biso   1.000  F 
  F9       1.0000 0.64920  0.36430  0.37890  Biso   1.000  F 
  O9       1.0000 0.52030  0.13750  0.44470  Biso   1.000  O 
  O10      1.0000 0.54310  0.28960  0.48540  Biso   1.000  O 
  H32      1.0000 0.99440  0.38980  0.36270  Biso   1.000  H 
  O11      1.0000 0.59280  0.99910  0.11860  Biso   1.000  O 
  H33      1.0000 0.53937  0.93336  0.10460  Biso   1.000  H 
  H34      1.0000 0.58300  0.04287  0.09010  Biso   1.000  H 
  C44      1.0000 0.35360  0.92410  0.18930  Biso   1.000  C 
  S9       1.0000 0.38639  0.83286  0.20331  Biso   1.000  S 
  C45      1.0000 0.36930  0.82280  0.28540  Biso   1.000  C 
  N22      1.0000 0.38320  0.75460  0.31080  Biso   1.000  N 
  C46      1.0000 0.37030  0.74450  0.37280  Biso   1.000  C 
  C47      1.0000 0.34340  0.79840  0.40770  Biso   1.000  C 
  H35      1.0000 0.33130  0.78830  0.45010  Biso   1.000  H 
  C48      1.0000 0.33510  0.86820  0.37740  Biso   1.000  C 
  N23      1.0000 0.34660  0.88220  0.31530  Biso   1.000  N 
  H36      1.0000 0.32060  0.90850  0.40120  Biso   1.000  H 
  H37      1.0000 0.38010  0.69860  0.39290  Biso   1.000  H 
  N24      1.0000 0.21750  0.50480  0.07310  Biso   1.000  N 
  C49      1.0000 0.27560  0.49760  0.03260  Biso   1.000  C 
  C50      1.0000 0.37480  0.53520  0.05040  Biso   1.000  C 
  H38      1.0000 0.41390  0.53060  0.02190  Biso   1.000  H 
  C51      1.0000 0.41280  0.57930  0.11140  Biso   1.000  C 
  H39      1.0000 0.47980  0.60380  0.12490  Biso   1.000  H 
  H40      1.0000 0.24680  0.46570  0.99110  Biso   1.000  H 
