data_image0
_cell_length_a       15.51
_cell_length_b       15.517
_cell_length_c       19.962
_cell_angle_alpha    98.381
_cell_angle_beta     93.697
_cell_angle_gamma    117.22

_symmetry_space_group_name_H-M    "P 1"
_symmetry_int_tables_number       1

loop_
  _symmetry_equiv_pos_as_xyz
  'x, y, z'

loop_
  _atom_site_label
  _atom_site_occupancy
  _atom_site_fract_x
  _atom_site_fract_y
  _atom_site_fract_z
  _atom_site_thermal_displace_type
  _atom_site_B_iso_or_equiv
  _atom_site_type_symbol
  C1       1.0000 0.95160  0.52950  0.45500  Biso   1.000  C 
  H1       1.0000 0.91930  0.54980  0.42520  Biso   1.000  H 
  C2       1.0000 0.91390  0.50310  0.51508  Biso   1.000  C 
  H2       1.0000 0.85670  0.50490  0.52440  Biso   1.000  H 
  C3       1.0000 0.96290  0.47380  0.56130  Biso   1.000  C 
  C4       1.0000 0.92570  0.44790  0.62691  Biso   1.000  C 
  C5       1.0000 0.82730  0.41630  0.63150  Biso   1.000  C 
  H3       1.0000 0.78500  0.41060  0.59390  Biso   1.000  H 
  C6       1.0000 0.79200  0.39310  0.69220  Biso   1.000  C 
  H4       1.0000 0.72580  0.37150  0.69490  Biso   1.000  H 
  N1       1.0000 0.85410  0.40180  0.74844  Biso   1.000  N 
  Ni1      1.0000 0.79920  0.38845  0.84201  Biso   1.000  Ni
  O1       1.0000 0.64780  0.30000  0.80014  Biso   1.000  O 
  C7       1.0000 0.62090  0.29240  0.85730  Biso   1.000  C 
  C8       1.0000 0.51800  0.22850  0.86850  Biso   1.000  C 
  C9       1.0000 0.44590  0.17700  0.81140  Biso   1.000  C 
  C10      1.0000 0.34910  0.11930  0.81840  Biso   1.000  C 
  H5       1.0000 0.30160  0.08490  0.77990  Biso   1.000  H 
  C11      1.0000 0.32370  0.11340  0.88370  Biso   1.000  C 
  S1       1.0000 0.19850  0.04426  0.89217  Biso   1.000  S 
  C12      1.0000 0.15150  0.12860  0.90890  Biso   1.000  C 
  C13      1.0000 0.14550  0.18070  0.85860  Biso   1.000  C 
  H6       1.0000 0.16370  0.16900  0.81610  Biso   1.000  H 
  C14      1.0000 0.11240  0.24990  0.87250  Biso   1.000  C 
  H7       1.0000 0.10850  0.28450  0.83910  Biso   1.000  H 
  C15      1.0000 0.08480  0.26780  0.93620  Biso   1.000  C 
  C16      1.0000 0.05850  0.35020  0.95310  Biso   1.000  C 
  O2       1.0000 0.05910  0.39780  0.90696  Biso   1.000  O 
  H8       1.0000 0.12577  0.42948  0.89390  Biso   1.000  H 
  O3       1.0000 0.03490  0.36290  0.01071  Biso   1.000  O 
  C17      1.0000 0.09140  0.21550  0.98570  Biso   1.000  C 
  C18      1.0000 0.12470  0.14640  0.97240  Biso   1.000  C 
  H9       1.0000 0.12900  0.11210  0.00590  Biso   1.000  H 
  H10      1.0000 0.07320  0.22700  0.02830  Biso   1.000  H 
  O4       1.0000 0.14110  0.97930  0.82421  Biso   1.000  O 
  O5       1.0000 0.19500  0.00080  0.95268  Biso   1.000  O 
  C19      1.0000 0.39420  0.16420  0.94060  Biso   1.000  C 
  H11      1.0000 0.37620  0.15970  0.98400  Biso   1.000  H 
  C20      1.0000 0.49160  0.22200  0.93400  Biso   1.000  C 
  H12      1.0000 0.53880  0.25600  0.97270  Biso   1.000  H 
  H13      1.0000 0.46320  0.18150  0.76780  Biso   1.000  H 
  O6       1.0000 0.68710  0.34050  0.91064  Biso   1.000  O 
  O7       1.0000 0.92950  0.46580  0.90463  Biso   1.000  O 
  H14      1.0000 0.95280  0.42120  0.91570  Biso   1.000  H 
  H15      1.0000 0.92120  0.49970  0.94590  Biso   1.000  H 
  N2       1.0000 0.79720  0.52160  0.84033  Biso   1.000  N 
  C21      1.0000 0.88110  0.60160  0.82960  Biso   1.000  C 
  H16      1.0000 0.93730  0.59560  0.82390  Biso   1.000  H 
  C22      1.0000 0.88150  0.69040  0.82730  Biso   1.000  C 
  C23      1.0000 0.79890  0.70120  0.83600  Biso   1.000  C 
  C24      1.0000 0.71460  0.62020  0.84670  Biso   1.000  C 
  C25      1.0000 0.71400  0.53020  0.84900  Biso   1.000  C 
  H17      1.0000 0.65770  0.47650  0.85640  Biso   1.000  H 
  H18      1.0000 0.65830  0.62600  0.85230  Biso   1.000  H 
  C26      1.0000 0.80110  0.79900  0.83530  Biso   1.000  C 
  C27      1.0000 0.72570  0.81530  0.85850  Biso   1.000  C 
  H19      1.0000 0.67350  0.76460  0.87260  Biso   1.000  H 
  C28      1.0000 0.72740  0.90530  0.86070  Biso   1.000  C 
  H20      1.0000 0.67690  0.91520  0.87670  Biso   1.000  H 
  C29      1.0000 0.80450  0.98150  0.83900  Biso   1.000  C 
  C30      1.0000 0.80340  0.07690  0.84100  Biso   1.000  C 
  C31      1.0000 0.77990  0.10020  0.78040  Biso   1.000  C 
  H21      1.0000 0.76440  0.05590  0.73930  Biso   1.000  H 
  C32      1.0000 0.77940  0.18920  0.78110  Biso   1.000  C 
  H22      1.0000 0.76470  0.20500  0.74020  Biso   1.000  H 
  N3       1.0000 0.80090  0.25530  0.84258  Biso   1.000  N 
  C33      1.0000 0.82420  0.23180  0.90340  Biso   1.000  C 
  C34      1.0000 0.82490  0.14210  0.90230  Biso   1.000  C 
  H23      1.0000 0.83980  0.12600  0.94300  Biso   1.000  H 
  H24      1.0000 0.83930  0.27580  0.94470  Biso   1.000  H 
  C35      1.0000 0.87930  0.96540  0.81530  Biso   1.000  C 
  H25      1.0000 0.93090  0.01580  0.80040  Biso   1.000  H 
  C36      1.0000 0.87770  0.87510  0.81350  Biso   1.000  C 
  H26      1.0000 0.92830  0.86550  0.79770  Biso   1.000  H 
  H27      1.0000 0.93810  0.74370  0.81970  Biso   1.000  H 
  C37      1.0000 0.95200  0.43430  0.74430  Biso   1.000  C 
  H28      1.0000 0.99410  0.44090  0.78230  Biso   1.000  H 
  C38      1.0000 0.98860  0.45730  0.68350  Biso   1.000  C 
  H29      1.0000 0.05470  0.47870  0.68100  Biso   1.000  H 
  C39      1.0000 0.04840  0.47050  0.54500  Biso   1.000  C 
  H30      1.0000 0.08070  0.45020  0.57480  Biso   1.000  H 
  C40      1.0000 0.08610  0.49690  0.48492  Biso   1.000  C 
  C41      1.0000 0.03710  0.52620  0.43870  Biso   1.000  C 
  C42      1.0000 0.07430  0.55210  0.37309  Biso   1.000  C 
  C43      1.0000 0.01140  0.54270  0.31650  Biso   1.000  C 
  C44      1.0000 0.04800  0.56570  0.25570  Biso   1.000  C 
  H31      1.0000 0.00590  0.55910  0.21770  Biso   1.000  H 
  N4       1.0000 0.14590  0.59820  0.25156  Biso   1.000  N 
  Ni2      1.0000 0.20080  0.61155  0.15799  Biso   1.000  Ni
  O8       1.0000 0.07050  0.53420  0.09537  Biso   1.000  O 
  H32      1.0000 0.07880  0.50030  0.05410  Biso   1.000  H 
  H33      1.0000 0.04720  0.57880  0.08430  Biso   1.000  H 
  O9       1.0000 0.31290  0.65950  0.08936  Biso   1.000  O 
  C45      1.0000 0.37910  0.70760  0.14270  Biso   1.000  C 
  C46      1.0000 0.48200  0.77150  0.13150  Biso   1.000  C 
  C47      1.0000 0.50840  0.77800  0.06600  Biso   1.000  C 
  H34      1.0000 0.46120  0.74400  0.02730  Biso   1.000  H 
  C48      1.0000 0.60580  0.83580  0.05940  Biso   1.000  C 
  H35      1.0000 0.62380  0.84030  0.01600  Biso   1.000  H 
  C49      1.0000 0.67630  0.88660  0.11630  Biso   1.000  C 
  S2       1.0000 0.80150  0.95574  0.10783  Biso   1.000  S 
  O10      1.0000 0.85890  0.02070  0.17579  Biso   1.000  O 
  C50      1.0000 0.84850  0.87140  0.09110  Biso   1.000  C 
  C51      1.0000 0.87530  0.85360  0.02760  Biso   1.000  C 
  C52      1.0000 0.90860  0.78450  0.01430  Biso   1.000  C 
  C53      1.0000 0.91520  0.73220  0.06380  Biso   1.000  C 
  C54      1.0000 0.94150  0.64980  0.04690  Biso   1.000  C 
  O11      1.0000 0.94090  0.60220  0.09304  Biso   1.000  O 
  H36      1.0000 0.87423  0.57052  0.10610  Biso   1.000  H 
  O12      1.0000 0.96510  0.63710  0.98929  Biso   1.000  O 
  C55      1.0000 0.88760  0.75010  0.12750  Biso   1.000  C 
  H37      1.0000 0.89150  0.71550  0.16090  Biso   1.000  H 
  C56      1.0000 0.85450  0.81930  0.14140  Biso   1.000  C 
  H38      1.0000 0.83630  0.83100  0.18390  Biso   1.000  H 
  H39      1.0000 0.92680  0.77300  0.97170  Biso   1.000  H 
  H40      1.0000 0.87100  0.88790  0.99410  Biso   1.000  H 
  O13      1.0000 0.80500  0.99920  0.04732  Biso   1.000  O 
  C57      1.0000 0.65090  0.88070  0.18160  Biso   1.000  C 
  H41      1.0000 0.69840  0.91510  0.22010  Biso   1.000  H 
  C58      1.0000 0.55410  0.82300  0.18860  Biso   1.000  C 
  H42      1.0000 0.53680  0.81850  0.23220  Biso   1.000  H 
  O14      1.0000 0.35220  0.70000  0.19986  Biso   1.000  O 
  N5       1.0000 0.20280  0.47840  0.15967  Biso   1.000  N 
  C59      1.0000 0.11890  0.39840  0.17040  Biso   1.000  C 
  C60      1.0000 0.11850  0.30960  0.17270  Biso   1.000  C 
  H43      1.0000 0.06190  0.25630  0.18030  Biso   1.000  H 
  C61      1.0000 0.20110  0.29880  0.16400  Biso   1.000  C 
  C62      1.0000 0.19890  0.20100  0.16470  Biso   1.000  C 
  C63      1.0000 0.27430  0.18470  0.14150  Biso   1.000  C 
  H44      1.0000 0.32650  0.23540  0.12740  Biso   1.000  H 
  C64      1.0000 0.27260  0.09470  0.13930  Biso   1.000  C 
  H45      1.0000 0.32310  0.08480  0.12330  Biso   1.000  H 
  C65      1.0000 0.19550  0.01850  0.16100  Biso   1.000  C 
  C66      1.0000 0.12070  0.03460  0.18470  Biso   1.000  C 
  C67      1.0000 0.12230  0.12490  0.18650  Biso   1.000  C 
  H46      1.0000 0.07170  0.13450  0.20230  Biso   1.000  H 
  H47      1.0000 0.06910  0.98420  0.19960  Biso   1.000  H 
  C68      1.0000 0.19660  0.92310  0.15900  Biso   1.000  C 
  C69      1.0000 0.17510  0.85790  0.09770  Biso   1.000  C 
  H48      1.0000 0.16020  0.87400  0.05700  Biso   1.000  H 
  C70      1.0000 0.17580  0.76820  0.09660  Biso   1.000  C 
  N6       1.0000 0.19910  0.74470  0.15742  Biso   1.000  N 
  C71      1.0000 0.22060  0.81080  0.21890  Biso   1.000  C 
  H49      1.0000 0.23530  0.79500  0.25980  Biso   1.000  H 
  C72      1.0000 0.22010  0.89980  0.21960  Biso   1.000  C 
  H50      1.0000 0.23560  0.94410  0.26070  Biso   1.000  H 
  H51      1.0000 0.16070  0.72420  0.05530  Biso   1.000  H 
  C73      1.0000 0.28540  0.37980  0.15330  Biso   1.000  C 
  H52      1.0000 0.34170  0.37400  0.14770  Biso   1.000  H 
  C74      1.0000 0.28600  0.46980  0.15100  Biso   1.000  C 
  H53      1.0000 0.34230  0.52350  0.14360  Biso   1.000  H 
  H54      1.0000 0.06270  0.40440  0.17610  Biso   1.000  H 
  C75      1.0000 0.20800  0.60690  0.30780  Biso   1.000  C 
  C76      1.0000 0.17270  0.58370  0.36850  Biso   1.000  C 
  H55      1.0000 0.21500  0.58940  0.40610  Biso   1.000  H 
  H56      1.0000 0.27420  0.62850  0.30510  Biso   1.000  H 
  H57      1.0000 0.94530  0.52130  0.31900  Biso   1.000  H 
  H58      1.0000 0.14330  0.49510  0.47560  Biso   1.000  H 
