data_image0
_cell_length_a       9.8065
_cell_length_b       12.3793
_cell_length_c       9.9408
_cell_angle_alpha    90
_cell_angle_beta     107.601
_cell_angle_gamma    90

_symmetry_space_group_name_H-M    "P 1"
_symmetry_int_tables_number       1

loop_
  _symmetry_equiv_pos_as_xyz
  'x, y, z'

loop_
  _atom_site_label
  _atom_site_occupancy
  _atom_site_fract_x
  _atom_site_fract_y
  _atom_site_fract_z
  _atom_site_thermal_displace_type
  _atom_site_B_iso_or_equiv
  _atom_site_type_symbol
  Cu1      1.0000 0.65363  0.25000  0.32602  Biso   1.000  Cu
  N1       1.0000 0.43100  0.25000  0.20700  Biso   1.000  N 
  C1       1.0000 0.38750  0.25000  0.06510  Biso   1.000  C 
  H1       1.0000 0.45790  0.25000  0.01720  Biso   1.000  H 
  C2       1.0000 0.24520  0.25000  0.98600  Biso   1.000  C 
  H2       1.0000 0.21940  0.25000  0.88590  Biso   1.000  H 
  C3       1.0000 0.14130  0.25000  0.05220  Biso   1.000  C 
  C4       1.0000 0.18630  0.25000  0.20050  Biso   1.000  C 
  C5       1.0000 0.33120  0.25000  0.27130  Biso   1.000  C 
  H3       1.0000 0.36050  0.25000  0.37150  Biso   1.000  H 
  H4       1.0000 0.11830  0.25000  0.25120  Biso   1.000  H 
  C6       1.0000 0.99260  0.25000  0.97680  Biso   1.000  C 
  C7       1.0000 0.86540  0.25000  0.91660  Biso   1.000  C 
  C8       1.0000 0.72160  0.25000  0.85050  Biso   1.000  C 
  C9       1.0000 0.59570  0.25000  0.78780  Biso   1.000  C 
  C10      1.0000 0.44550  0.25000  0.71600  Biso   1.000  C 
  C11      1.0000 0.36870  0.15325  0.67880  Biso   1.000  C 
  C12      1.0000 0.22400  0.15759  0.61040  Biso   1.000  C 
  N2       1.0000 0.15210  0.25000  0.57590  Biso   1.000  N 
  Cu2      1.0000 0.92375  0.25000  0.46614  Biso   1.000  Cu
  O1       1.0000 0.93966  0.13825  0.33014  Biso   1.000  O 
  C13      1.0000 0.83320  0.10436  0.23260  Biso   1.000  C 
  C14      1.0000 0.86000  0.01881  0.13630  Biso   1.000  C 
  H5       1.0000 0.91290  0.05030  0.07640  Biso   1.000  H 
  H6       1.0000 0.91620  0.96010  0.19280  Biso   1.000  H 
  H7       1.0000 0.76840  0.99030  0.07670  Biso   1.000  H 
  O2       1.0000 0.70637  0.13705  0.20933  Biso   1.000  O 
  O3       1.0000 0.93966  0.36175  0.33014  Biso   1.000  O 
  C15      1.0000 0.83320  0.39564  0.23260  Biso   1.000  C 
  C16      1.0000 0.86000  0.48119  0.13630  Biso   1.000  C 
  H8       1.0000 0.91290  0.44970  0.07640  Biso   1.000  H 
  H9       1.0000 0.76840  0.50970  0.07670  Biso   1.000  H 
  H10      1.0000 0.91620  0.53990  0.19280  Biso   1.000  H 
  O4       1.0000 0.70637  0.36295  0.20933  Biso   1.000  O 
  O5       1.0000 0.87239  0.13730  0.58125  Biso   1.000  O 
  C17      1.0000 0.74690  0.10337  0.55770  Biso   1.000  C 
  O6       1.0000 0.63921  0.13733  0.46165  Biso   1.000  O 
  C18      1.0000 0.72440  0.01444  0.65150  Biso   1.000  C 
  H11      1.0000 0.73510  0.04340  0.74590  Biso   1.000  H 
  H12      1.0000 0.79540  0.95740  0.65790  Biso   1.000  H 
  H13      1.0000 0.62810  0.98450  0.61200  Biso   1.000  H 
  O7       1.0000 0.87239  0.36270  0.58125  Biso   1.000  O 
  C19      1.0000 0.74690  0.39663  0.55770  Biso   1.000  C 
  O8       1.0000 0.63921  0.36267  0.46165  Biso   1.000  O 
  C20      1.0000 0.72440  0.48556  0.65150  Biso   1.000  C 
  H14      1.0000 0.73510  0.45660  0.74590  Biso   1.000  H 
  H15      1.0000 0.79540  0.54260  0.65790  Biso   1.000  H 
  H16      1.0000 0.62810  0.51550  0.61200  Biso   1.000  H 
  C21      1.0000 0.22400  0.34241  0.61040  Biso   1.000  C 
  H17      1.0000 0.17290  0.40840  0.58670  Biso   1.000  H 
  C22      1.0000 0.36870  0.34675  0.67880  Biso   1.000  C 
  H18      1.0000 0.41610  0.41440  0.70050  Biso   1.000  H 
  H19      1.0000 0.17290  0.09160  0.58670  Biso   1.000  H 
  H20      1.0000 0.41610  0.08560  0.70050  Biso   1.000  H 
