data_image0
_cell_length_a       9.476
_cell_length_b       9.9904
_cell_length_c       11.22
_cell_angle_alpha    114.304
_cell_angle_beta     93.63
_cell_angle_gamma    93.73

_symmetry_space_group_name_H-M    "P 1"
_symmetry_int_tables_number       1

loop_
  _symmetry_equiv_pos_as_xyz
  'x, y, z'

loop_
  _atom_site_label
  _atom_site_occupancy
  _atom_site_fract_x
  _atom_site_fract_y
  _atom_site_fract_z
  _atom_site_thermal_displace_type
  _atom_site_B_iso_or_equiv
  _atom_site_type_symbol
  Co1      1.0000 0.50000  0.00000  0.50000  Biso   1.000  Co
  N1       1.0000 0.42170  0.15210  0.42730  Biso   1.000  N 
  C1       1.0000 0.30170  0.13790  0.35390  Biso   1.000  C 
  H1       1.0000 0.24000  0.04930  0.31150  Biso   1.000  H 
  N2       1.0000 0.28010  0.26470  0.34840  Biso   1.000  N 
  C2       1.0000 0.15660  0.30720  0.29220  Biso   1.000  C 
  H2       1.0000 0.18830  0.35840  0.23810  Biso   1.000  H 
  H3       1.0000 0.09360  0.21770  0.23460  Biso   1.000  H 
  C3       1.0000 0.07580  0.40770  0.40000  Biso   1.000  C 
  C4       1.0000 0.01860  0.35960  0.48770  Biso   1.000  C 
  H4       1.0000 0.03120  0.26290  0.48010  Biso   1.000  H 
  C5       1.0000 0.94330  0.45060  0.58640  Biso   1.000  C 
  H5       1.0000 0.90440  0.41550  0.64540  Biso   1.000  H 
  C6       1.0000 0.92420  0.59230  0.60000  Biso   1.000  C 
  C7       1.0000 0.98140  0.64040  0.51230  Biso   1.000  C 
  H6       1.0000 0.96880  0.73710  0.51990  Biso   1.000  H 
  C8       1.0000 0.05670  0.54940  0.41360  Biso   1.000  C 
  H7       1.0000 0.09560  0.58450  0.35460  Biso   1.000  H 
  C9       1.0000 0.84340  0.69280  0.70780  Biso   1.000  C 
  H8       1.0000 0.81170  0.64160  0.76190  Biso   1.000  H 
  H9       1.0000 0.90640  0.78230  0.76540  Biso   1.000  H 
  N3       1.0000 0.71990  0.73530  0.65160  Biso   1.000  N 
  N4       1.0000 0.61270  0.63020  0.57910  Biso   1.000  N 
  C10      1.0000 0.53050  0.70350  0.53430  Biso   1.000  C 
  H10      1.0000 0.44450  0.65930  0.47950  Biso   1.000  H 
  C11      1.0000 0.69830  0.86210  0.64610  Biso   1.000  C 
  H11      1.0000 0.76000  0.95070  0.68850  Biso   1.000  H 
  N5       1.0000 0.57830  0.84790  0.57270  Biso   1.000  N 
  N6       1.0000 0.38730  0.36980  0.42090  Biso   1.000  N 
  C12      1.0000 0.46950  0.29650  0.46570  Biso   1.000  C 
  H12      1.0000 0.55550  0.34070  0.52050  Biso   1.000  H 
  N7       1.0000 0.31880  0.03040  0.61370  Biso   1.000  N 
  C13      1.0000 0.31590  0.10960  0.74130  Biso   1.000  C 
  H13      1.0000 0.39740  0.15280  0.80280  Biso   1.000  H 
  N8       1.0000 0.18250  0.11990  0.77060  Biso   1.000  N 
  C14      1.0000 0.12740  0.20090  0.89850  Biso   1.000  C 
  H14      1.0000 0.04728  0.26903  0.88670  Biso   1.000  H 
  C15      1.0000 0.06070  0.09390  0.94970  Biso   1.000  C 
  C16      1.0000 0.14190  0.00020  0.97910  Biso   1.000  C 
  H15      1.0000 0.23970  0.99990  0.96470  Biso   1.000  H 
  C17      1.0000 0.08250  0.90580  0.02970  Biso   1.000  C 
  H16      1.0000 0.13940  0.84170  0.05000  Biso   1.000  H 
  C18      1.0000 0.93930  0.90610  0.05030  Biso   1.000  C 
  C19      1.0000 0.85810  0.99980  0.02090  Biso   1.000  C 
  C20      1.0000 0.91750  0.09420  0.97030  Biso   1.000  C 
  H17      1.0000 0.86060  0.15830  0.95000  Biso   1.000  H 
  H18      1.0000 0.76030  0.00010  0.03530  Biso   1.000  H 
  C21      1.0000 0.87260  0.79910  0.10150  Biso   1.000  C 
  H19      1.0000 0.78546  0.72891  0.03087  Biso   1.000  H 
  H20      1.0000 0.95272  0.73097  0.11330  Biso   1.000  H 
  N9       1.0000 0.81750  0.88010  0.22940  Biso   1.000  N 
  C22      1.0000 0.68410  0.89040  0.25870  Biso   1.000  C 
  H21      1.0000 0.60260  0.84720  0.19720  Biso   1.000  H 
  C23      1.0000 0.82080  0.00550  0.43050  Biso   1.000  C 
  H22      1.0000 0.85290  0.06370  0.52040  Biso   1.000  H 
  N10      1.0000 0.90860  0.95370  0.33970  Biso   1.000  N 
  N11      1.0000 0.68120  0.96960  0.38630  Biso   1.000  N 
  H23      1.0000 0.21454  0.27109  0.96913  Biso   1.000  H 
  N12      1.0000 0.09140  0.04630  0.66030  Biso   1.000  N 
  C24      1.0000 0.17920  0.99450  0.56950  Biso   1.000  C 
  H24      1.0000 0.14710  0.93630  0.47960  Biso   1.000  H 
  N13      1.0000 0.62330  0.17320  0.65820  Biso   1.000  N 
  C25      1.0000 0.69050  0.26670  0.74700  Biso   1.000  C 
  S1       1.0000 0.78661  0.39900  0.87145  Biso   1.000  S 
  N14      1.0000 0.37670  0.82680  0.34180  Biso   1.000  N 
  C26      1.0000 0.30950  0.73330  0.25300  Biso   1.000  C 
  S2       1.0000 0.21339  0.60100  0.12855  Biso   1.000  S 
