data_image0
_cell_length_a       17.215
_cell_length_b       17.215
_cell_length_c       17.215
_cell_angle_alpha    90
_cell_angle_beta     90
_cell_angle_gamma    90

_symmetry_space_group_name_H-M    "P 1"
_symmetry_int_tables_number       1

loop_
  _symmetry_equiv_pos_as_xyz
  'x, y, z'

loop_
  _atom_site_label
  _atom_site_occupancy
  _atom_site_fract_x
  _atom_site_fract_y
  _atom_site_fract_z
  _atom_site_thermal_displace_type
  _atom_site_B_iso_or_equiv
  _atom_site_type_symbol
  O1       1.0000 0.98380  0.89180  0.41280  Biso   1.000  O 
  N1       1.0000 0.91960  0.91960  0.43420  Biso   1.000  N 
  C1       1.0000 0.87200  0.87200  0.48320  Biso   1.000  C 
  N2       1.0000 0.80140  0.89460  0.50080  Biso   1.000  N 
  C2       1.0000 0.77340  0.83440  0.54510  Biso   1.000  C 
  H1       1.0000 0.72470  0.83260  0.57470  Biso   1.000  H 
  C3       1.0000 0.83440  0.77340  0.54510  Biso   1.000  C 
  H2       1.0000 0.83260  0.72470  0.57470  Biso   1.000  H 
  N3       1.0000 0.89460  0.80140  0.50080  Biso   1.000  N 
  Zn1      1.0000 0.00000  0.75000  0.50000  Biso   1.000  Zn
  N4       1.0000 0.00080  0.69860  0.60540  Biso   1.000  N 
  C4       1.0000 0.04510  0.72660  0.66560  Biso   1.000  C 
  C5       1.0000 0.04510  0.66560  0.72660  Biso   1.000  C 
  H3       1.0000 0.07470  0.66740  0.77530  Biso   1.000  H 
  C6       1.0000 0.98320  0.62800  0.62800  Biso   1.000  C 
  N5       1.0000 0.00080  0.60540  0.69860  Biso   1.000  N 
  Zn2      1.0000 0.00000  0.50000  0.75000  Biso   1.000  Zn
  N6       1.0000 0.99920  0.39460  0.69860  Biso   1.000  N 
  C7       1.0000 0.95490  0.33440  0.72660  Biso   1.000  C 
  C8       1.0000 0.95490  0.27340  0.66560  Biso   1.000  C 
  H4       1.0000 0.92530  0.22470  0.66740  Biso   1.000  H 
  C9       1.0000 0.01680  0.37200  0.62800  Biso   1.000  C 
  N7       1.0000 0.06580  0.41960  0.58040  Biso   1.000  N 
  O2       1.0000 0.08720  0.48380  0.60820  Biso   1.000  O 
  O3       1.0000 0.08720  0.39180  0.51620  Biso   1.000  O 
  N8       1.0000 0.99920  0.30140  0.60540  Biso   1.000  N 
  Zn3      1.0000 0.00000  0.25000  0.50000  Biso   1.000  Zn
  N9       1.0000 0.10540  0.19860  0.50080  Biso   1.000  N 
  C10      1.0000 0.16560  0.22660  0.54510  Biso   1.000  C 
  H5       1.0000 0.16740  0.27530  0.57470  Biso   1.000  H 
  C11      1.0000 0.22660  0.16560  0.54510  Biso   1.000  C 
  H6       1.0000 0.27530  0.16740  0.57470  Biso   1.000  H 
  C12      1.0000 0.12800  0.12800  0.48320  Biso   1.000  C 
  N10      1.0000 0.19860  0.10540  0.50080  Biso   1.000  N 
  Zn4      1.0000 0.25000  0.00000  0.50000  Biso   1.000  Zn
  N11      1.0000 0.30140  0.00080  0.39460  Biso   1.000  N 
  C13      1.0000 0.27340  0.04510  0.33440  Biso   1.000  C 
  H7       1.0000 0.22470  0.07470  0.33260  Biso   1.000  H 
  C14      1.0000 0.33440  0.04510  0.27340  Biso   1.000  C 
  H8       1.0000 0.33260  0.07470  0.22470  Biso   1.000  H 
  C15      1.0000 0.37200  0.98320  0.37200  Biso   1.000  C 
  N12      1.0000 0.39460  0.00080  0.30140  Biso   1.000  N 
  Zn5      1.0000 0.50000  0.00000  0.25000  Biso   1.000  Zn
  N13      1.0000 0.49920  0.89460  0.19860  Biso   1.000  N 
  C16      1.0000 0.45490  0.83440  0.22660  Biso   1.000  C 
  H9       1.0000 0.42530  0.83260  0.27530  Biso   1.000  H 
  C17      1.0000 0.45490  0.77340  0.16560  Biso   1.000  C 
  H10      1.0000 0.42530  0.72470  0.16740  Biso   1.000  H 
  C18      1.0000 0.51680  0.87200  0.12800  Biso   1.000  C 
  N14      1.0000 0.49920  0.80140  0.10540  Biso   1.000  N 
  Zn6      1.0000 0.50000  0.75000  0.00000  Biso   1.000  Zn
  N15      1.0000 0.60540  0.69860  0.00080  Biso   1.000  N 
  C19      1.0000 0.66560  0.72660  0.04510  Biso   1.000  C 
  C20      1.0000 0.72660  0.66560  0.04510  Biso   1.000  C 
  H11      1.0000 0.77530  0.66740  0.07470  Biso   1.000  H 
  C21      1.0000 0.62800  0.62800  0.98320  Biso   1.000  C 
  N16      1.0000 0.69860  0.60540  0.00080  Biso   1.000  N 
  Zn7      1.0000 0.75000  0.50000  0.00000  Biso   1.000  Zn
  N17      1.0000 0.80140  0.50080  0.89460  Biso   1.000  N 
  C22      1.0000 0.77340  0.54510  0.83440  Biso   1.000  C 
  C23      1.0000 0.83440  0.54510  0.77340  Biso   1.000  C 
  H12      1.0000 0.83260  0.57470  0.72470  Biso   1.000  H 
  C24      1.0000 0.87200  0.48320  0.87200  Biso   1.000  C 
  N18      1.0000 0.89460  0.50080  0.80140  Biso   1.000  N 
  N19      1.0000 0.91960  0.43420  0.91960  Biso   1.000  N 
  O4       1.0000 0.89180  0.41280  0.98380  Biso   1.000  O 
  O5       1.0000 0.98380  0.41280  0.89180  Biso   1.000  O 
  H13      1.0000 0.72470  0.57470  0.83260  Biso   1.000  H 
  N20      1.0000 0.69860  0.39460  0.99920  Biso   1.000  N 
  C25      1.0000 0.72660  0.33440  0.95490  Biso   1.000  C 
  H14      1.0000 0.77530  0.33260  0.92530  Biso   1.000  H 
  C26      1.0000 0.62800  0.37200  0.01680  Biso   1.000  C 
  N21      1.0000 0.58040  0.41960  0.06580  Biso   1.000  N 
  O6       1.0000 0.51620  0.39180  0.08720  Biso   1.000  O 
  O7       1.0000 0.60820  0.48380  0.08720  Biso   1.000  O 
  N22      1.0000 0.60540  0.30140  0.99920  Biso   1.000  N 
  C27      1.0000 0.66560  0.27340  0.95490  Biso   1.000  C 
  H15      1.0000 0.66740  0.22470  0.92530  Biso   1.000  H 
  Zn8      1.0000 0.50000  0.25000  0.00000  Biso   1.000  Zn
  N23      1.0000 0.39460  0.30140  0.00080  Biso   1.000  N 
  C28      1.0000 0.33440  0.27340  0.04510  Biso   1.000  C 
  C29      1.0000 0.27340  0.33440  0.04510  Biso   1.000  C 
  H16      1.0000 0.22470  0.33260  0.07470  Biso   1.000  H 
  C30      1.0000 0.37200  0.37200  0.98320  Biso   1.000  C 
  N24      1.0000 0.30140  0.39460  0.00080  Biso   1.000  N 
  Zn9      1.0000 0.25000  0.50000  0.00000  Biso   1.000  Zn
  N25      1.0000 0.30140  0.60540  0.99920  Biso   1.000  N 
  C31      1.0000 0.27340  0.66560  0.95490  Biso   1.000  C 
  H17      1.0000 0.22470  0.66740  0.92530  Biso   1.000  H 
  C32      1.0000 0.33440  0.72660  0.95490  Biso   1.000  C 
  H18      1.0000 0.33260  0.77530  0.92530  Biso   1.000  H 
  C33      1.0000 0.37200  0.62800  0.01680  Biso   1.000  C 
  N26      1.0000 0.41960  0.58040  0.06580  Biso   1.000  N 
  O8       1.0000 0.39180  0.51620  0.08720  Biso   1.000  O 
  O9       1.0000 0.48380  0.60820  0.08720  Biso   1.000  O 
  N27      1.0000 0.39460  0.69860  0.99920  Biso   1.000  N 
  N28      1.0000 0.19860  0.49920  0.89460  Biso   1.000  N 
  C34      1.0000 0.22660  0.45490  0.83440  Biso   1.000  C 
  C35      1.0000 0.16560  0.45490  0.77340  Biso   1.000  C 
  H19      1.0000 0.16740  0.42530  0.72470  Biso   1.000  H 
  C36      1.0000 0.12800  0.51680  0.87200  Biso   1.000  C 
  N29      1.0000 0.10540  0.49920  0.80140  Biso   1.000  N 
  N30      1.0000 0.08040  0.56580  0.91960  Biso   1.000  N 
  O10      1.0000 0.10820  0.58720  0.98380  Biso   1.000  O 
  O11      1.0000 0.01620  0.58720  0.89180  Biso   1.000  O 
  H20      1.0000 0.27530  0.42530  0.83260  Biso   1.000  H 
  N31      1.0000 0.19860  0.50080  0.10540  Biso   1.000  N 
  C37      1.0000 0.22660  0.54510  0.16560  Biso   1.000  C 
  H21      1.0000 0.27530  0.57470  0.16740  Biso   1.000  H 
  C38      1.0000 0.12800  0.48320  0.12800  Biso   1.000  C 
  C39      1.0000 0.16560  0.54510  0.22660  Biso   1.000  C 
  H22      1.0000 0.16740  0.57470  0.27530  Biso   1.000  H 
  N32      1.0000 0.10540  0.50080  0.19860  Biso   1.000  N 
  Zn10     1.0000 0.00000  0.50000  0.25000  Biso   1.000  Zn
  N33      1.0000 0.00080  0.39460  0.30140  Biso   1.000  N 
  C40      1.0000 0.04510  0.33440  0.27340  Biso   1.000  C 
  C41      1.0000 0.04510  0.27340  0.33440  Biso   1.000  C 
  H23      1.0000 0.07470  0.22470  0.33260  Biso   1.000  H 
  C42      1.0000 0.98320  0.37200  0.37200  Biso   1.000  C 
  N34      1.0000 0.00080  0.30140  0.39460  Biso   1.000  N 
  N35      1.0000 0.93420  0.41960  0.41960  Biso   1.000  N 
  O12      1.0000 0.91280  0.48380  0.39180  Biso   1.000  O 
  O13      1.0000 0.91280  0.39180  0.48380  Biso   1.000  O 
  H24      1.0000 0.07470  0.33260  0.22470  Biso   1.000  H 
  N36      1.0000 0.89460  0.49920  0.19860  Biso   1.000  N 
  C43      1.0000 0.83440  0.45490  0.22660  Biso   1.000  C 
  C44      1.0000 0.77340  0.45490  0.16560  Biso   1.000  C 
  H25      1.0000 0.72470  0.42530  0.16740  Biso   1.000  H 
  C45      1.0000 0.87200  0.51680  0.12800  Biso   1.000  C 
  N37      1.0000 0.80140  0.49920  0.10540  Biso   1.000  N 
  N38      1.0000 0.91960  0.56580  0.08040  Biso   1.000  N 
  O14      1.0000 0.98380  0.58720  0.10820  Biso   1.000  O 
  O15      1.0000 0.89180  0.58720  0.01620  Biso   1.000  O 
  H26      1.0000 0.83260  0.42530  0.27530  Biso   1.000  H 
  N39      1.0000 0.99920  0.60540  0.30140  Biso   1.000  N 
  C46      1.0000 0.95490  0.66560  0.27340  Biso   1.000  C 
  H27      1.0000 0.92530  0.66740  0.22470  Biso   1.000  H 
  C47      1.0000 0.95490  0.72660  0.33440  Biso   1.000  C 
  H28      1.0000 0.92530  0.77530  0.33260  Biso   1.000  H 
  C48      1.0000 0.01680  0.62800  0.37200  Biso   1.000  C 
  N40      1.0000 0.06580  0.58040  0.41960  Biso   1.000  N 
  O16      1.0000 0.08720  0.51620  0.39180  Biso   1.000  O 
  O17      1.0000 0.08720  0.60820  0.48380  Biso   1.000  O 
  N41      1.0000 0.99920  0.69860  0.39460  Biso   1.000  N 
  N42      1.0000 0.08040  0.43420  0.08040  Biso   1.000  N 
  O18      1.0000 0.01620  0.41280  0.10820  Biso   1.000  O 
  O19      1.0000 0.10820  0.41280  0.01620  Biso   1.000  O 
  N43      1.0000 0.41960  0.41960  0.93420  Biso   1.000  N 
  O20      1.0000 0.48380  0.39180  0.91280  Biso   1.000  O 
  O21      1.0000 0.39180  0.48380  0.91280  Biso   1.000  O 
  H29      1.0000 0.33260  0.22470  0.07470  Biso   1.000  H 
  N44      1.0000 0.50080  0.19860  0.10540  Biso   1.000  N 
  C49      1.0000 0.54510  0.22660  0.16560  Biso   1.000  C 
  C50      1.0000 0.54510  0.16560  0.22660  Biso   1.000  C 
  H30      1.0000 0.57470  0.16740  0.27530  Biso   1.000  H 
  C51      1.0000 0.48320  0.12800  0.12800  Biso   1.000  C 
  N45      1.0000 0.50080  0.10540  0.19860  Biso   1.000  N 
  N46      1.0000 0.43420  0.08040  0.08040  Biso   1.000  N 
  O22      1.0000 0.41280  0.10820  0.01620  Biso   1.000  O 
  O23      1.0000 0.41280  0.01620  0.10820  Biso   1.000  O 
  H31      1.0000 0.57470  0.27530  0.16740  Biso   1.000  H 
  N47      1.0000 0.49920  0.19860  0.89460  Biso   1.000  N 
  C52      1.0000 0.45490  0.22660  0.83440  Biso   1.000  C 
  H32      1.0000 0.42530  0.27530  0.83260  Biso   1.000  H 
  C53      1.0000 0.51680  0.12800  0.87200  Biso   1.000  C 
  N48      1.0000 0.49920  0.10540  0.80140  Biso   1.000  N 
  C54      1.0000 0.45490  0.16560  0.77340  Biso   1.000  C 
  H33      1.0000 0.42530  0.16740  0.72470  Biso   1.000  H 
  Zn11     1.0000 0.50000  0.00000  0.75000  Biso   1.000  Zn
  N49      1.0000 0.50080  0.89460  0.80140  Biso   1.000  N 
  C55      1.0000 0.54510  0.83440  0.77340  Biso   1.000  C 
  H34      1.0000 0.57470  0.83260  0.72470  Biso   1.000  H 
  C56      1.0000 0.54510  0.77340  0.83440  Biso   1.000  C 
  H35      1.0000 0.57470  0.72470  0.83260  Biso   1.000  H 
  C57      1.0000 0.48320  0.87200  0.87200  Biso   1.000  C 
  N50      1.0000 0.50080  0.80140  0.89460  Biso   1.000  N 
  N51      1.0000 0.43420  0.91960  0.91960  Biso   1.000  N 
  O24      1.0000 0.41280  0.98380  0.89180  Biso   1.000  O 
  O25      1.0000 0.41280  0.89180  0.98380  Biso   1.000  O 
  N52      1.0000 0.39460  0.99920  0.69860  Biso   1.000  N 
  C58      1.0000 0.33440  0.95490  0.72660  Biso   1.000  C 
  H36      1.0000 0.33260  0.92530  0.77530  Biso   1.000  H 
  C59      1.0000 0.27340  0.95490  0.66560  Biso   1.000  C 
  H37      1.0000 0.22470  0.92530  0.66740  Biso   1.000  H 
  C60      1.0000 0.37200  0.01680  0.62800  Biso   1.000  C 
  N53      1.0000 0.41960  0.06580  0.58040  Biso   1.000  N 
  O26      1.0000 0.48380  0.08720  0.60820  Biso   1.000  O 
  O27      1.0000 0.39180  0.08720  0.51620  Biso   1.000  O 
  N54      1.0000 0.30140  0.99920  0.60540  Biso   1.000  N 
  N55      1.0000 0.60540  0.00080  0.69860  Biso   1.000  N 
  C61      1.0000 0.66560  0.04510  0.72660  Biso   1.000  C 
  H38      1.0000 0.66740  0.07470  0.77530  Biso   1.000  H 
  C62      1.0000 0.72660  0.04510  0.66560  Biso   1.000  C 
  H39      1.0000 0.77530  0.07470  0.66740  Biso   1.000  H 
  C63      1.0000 0.62800  0.98320  0.62800  Biso   1.000  C 
  N56      1.0000 0.69860  0.00080  0.60540  Biso   1.000  N 
  Zn12     1.0000 0.75000  0.00000  0.50000  Biso   1.000  Zn
  N57      1.0000 0.80140  0.10540  0.49920  Biso   1.000  N 
  C64      1.0000 0.77340  0.16560  0.45490  Biso   1.000  C 
  H40      1.0000 0.72470  0.16740  0.42530  Biso   1.000  H 
  C65      1.0000 0.83440  0.22660  0.45490  Biso   1.000  C 
  H41      1.0000 0.83260  0.27530  0.42530  Biso   1.000  H 
  C66      1.0000 0.87200  0.12800  0.51680  Biso   1.000  C 
  N58      1.0000 0.89460  0.19860  0.49920  Biso   1.000  N 
  N59      1.0000 0.91960  0.08040  0.56580  Biso   1.000  N 
  O28      1.0000 0.89180  0.01620  0.58720  Biso   1.000  O 
  O29      1.0000 0.98380  0.10820  0.58720  Biso   1.000  O 
  N60      1.0000 0.69860  0.99920  0.39460  Biso   1.000  N 
  C67      1.0000 0.72660  0.95490  0.33440  Biso   1.000  C 
  C68      1.0000 0.66560  0.95490  0.27340  Biso   1.000  C 
  H42      1.0000 0.66740  0.92530  0.22470  Biso   1.000  H 
  C69      1.0000 0.62800  0.01680  0.37200  Biso   1.000  C 
  N61      1.0000 0.58040  0.06580  0.41960  Biso   1.000  N 
  O30      1.0000 0.60820  0.08720  0.48380  Biso   1.000  O 
  O31      1.0000 0.51620  0.08720  0.39180  Biso   1.000  O 
  N62      1.0000 0.60540  0.99920  0.30140  Biso   1.000  N 
  H43      1.0000 0.77530  0.92530  0.33260  Biso   1.000  H 
  N63      1.0000 0.58040  0.93420  0.58040  Biso   1.000  N 
  O32      1.0000 0.51620  0.91280  0.60820  Biso   1.000  O 
  O33      1.0000 0.60820  0.91280  0.51620  Biso   1.000  O 
  N64      1.0000 0.56580  0.08040  0.91960  Biso   1.000  N 
  O34      1.0000 0.58720  0.01620  0.89180  Biso   1.000  O 
  O35      1.0000 0.58720  0.10820  0.98380  Biso   1.000  O 
  N65      1.0000 0.58040  0.58040  0.93420  Biso   1.000  N 
  O36      1.0000 0.51620  0.60820  0.91280  Biso   1.000  O 
  O37      1.0000 0.60820  0.51620  0.91280  Biso   1.000  O 
  H44      1.0000 0.66740  0.77530  0.07470  Biso   1.000  H 
  N66      1.0000 0.56580  0.91960  0.08040  Biso   1.000  N 
  O38      1.0000 0.58720  0.98380  0.10820  Biso   1.000  O 
  O39      1.0000 0.58720  0.89180  0.01620  Biso   1.000  O 
  N67      1.0000 0.41960  0.93420  0.41960  Biso   1.000  N 
  O40      1.0000 0.39180  0.91280  0.48380  Biso   1.000  O 
  O41      1.0000 0.48380  0.91280  0.39180  Biso   1.000  O 
  N68      1.0000 0.19860  0.89460  0.49920  Biso   1.000  N 
  C70      1.0000 0.22660  0.83440  0.45490  Biso   1.000  C 
  H45      1.0000 0.27530  0.83260  0.42530  Biso   1.000  H 
  C71      1.0000 0.12800  0.87200  0.51680  Biso   1.000  C 
  N69      1.0000 0.10540  0.80140  0.49920  Biso   1.000  N 
  C72      1.0000 0.16560  0.77340  0.45490  Biso   1.000  C 
  H46      1.0000 0.16740  0.72470  0.42530  Biso   1.000  H 
  N70      1.0000 0.08040  0.91960  0.56580  Biso   1.000  N 
  O42      1.0000 0.01620  0.89180  0.58720  Biso   1.000  O 
  O43      1.0000 0.10820  0.98380  0.58720  Biso   1.000  O 
  N71      1.0000 0.08040  0.08040  0.43420  Biso   1.000  N 
  O44      1.0000 0.01620  0.10820  0.41280  Biso   1.000  O 
  O45      1.0000 0.10820  0.01620  0.41280  Biso   1.000  O 
  H47      1.0000 0.92530  0.33260  0.77530  Biso   1.000  H 
  N72      1.0000 0.93420  0.58040  0.58040  Biso   1.000  N 
  O46      1.0000 0.91280  0.60820  0.51620  Biso   1.000  O 
  O47      1.0000 0.91280  0.51620  0.60820  Biso   1.000  O 
  H48      1.0000 0.07470  0.77530  0.66740  Biso   1.000  H 
  O48      1.0000 0.89180  0.98380  0.41280  Biso   1.000  O 
