data_image0
_cell_length_a       14.7241
_cell_length_b       21.4248
_cell_length_c       17.2433
_cell_angle_alpha    90
_cell_angle_beta     113.366
_cell_angle_gamma    90

_symmetry_space_group_name_H-M    "P 1"
_symmetry_int_tables_number       1

loop_
  _symmetry_equiv_pos_as_xyz
  'x, y, z'

loop_
  _atom_site_label
  _atom_site_occupancy
  _atom_site_fract_x
  _atom_site_fract_y
  _atom_site_fract_z
  _atom_site_thermal_displace_type
  _atom_site_B_iso_or_equiv
  _atom_site_type_symbol
  Cd1      1.0000 0.61581  0.62928  0.84715  Biso   1.000  Cd
  N1       1.0000 0.55080  0.68500  0.91910  Biso   1.000  N 
  C1       1.0000 0.52480  0.65950  0.97740  Biso   1.000  C 
  H1       1.0000 0.53554  0.61751  0.99184  Biso   1.000  H 
  N2       1.0000 0.48250  0.69750  0.01390  Biso   1.000  N 
  C2       1.0000 0.47920  0.75490  0.97430  Biso   1.000  C 
  C3       1.0000 0.44440  0.81290  0.98730  Biso   1.000  C 
  C4       1.0000 0.45150  0.86070  0.93820  Biso   1.000  C 
  H2       1.0000 0.42784  0.89979  0.94439  Biso   1.000  H 
  C5       1.0000 0.49350  0.85290  0.87830  Biso   1.000  C 
  C6       1.0000 0.52890  0.79560  0.86600  Biso   1.000  C 
  H3       1.0000 0.55608  0.79036  0.82609  Biso   1.000  H 
  C7       1.0000 0.52210  0.74610  0.91590  Biso   1.000  C 
  H4       1.0000 0.49753  0.88704  0.84646  Biso   1.000  H 
  H5       1.0000 0.41773  0.81858  0.02745  Biso   1.000  H 
  Cd2      1.0000 0.43851  0.66162  0.11078  Biso   1.000  Cd
  N3       1.0000 0.29530  0.69340  0.10730  Biso   1.000  N 
  C8       1.0000 0.24580  0.66800  0.15170  Biso   1.000  C 
  C9       1.0000 0.27210  0.61980  0.21300  Biso   1.000  C 
  H6       1.0000 0.33342  0.60023  0.23115  Biso   1.000  H 
  C10      1.0000 0.20410  0.60320  0.24400  Biso   1.000  C 
  C11      1.0000 0.11140  0.63140  0.21760  Biso   1.000  C 
  H7       1.0000 0.06638  0.61776  0.23953  Biso   1.000  H 
  C12      1.0000 0.08540  0.67960  0.15890  Biso   1.000  C 
  H8       1.0000 0.02443  0.69955  0.14206  Biso   1.000  H 
  C13      1.0000 0.15410  0.69680  0.12650  Biso   1.000  C 
  N4       1.0000 0.14790  0.74120  0.06670  Biso   1.000  N 
  C14      1.0000 0.23310  0.73590  0.05770  Biso   1.000  C 
  H9       1.0000 0.24827  0.76006  0.01961  Biso   1.000  H 
  Cd3      1.0000 0.01094  0.78768  0.98196  Biso   1.000  Cd
  N5       1.0000 0.04380  0.82780  0.88120  Biso   1.000  N 
  C15      1.0000 0.11140  0.87190  0.87940  Biso   1.000  C 
  C16      1.0000 0.18020  0.90750  0.94380  Biso   1.000  C 
  H10      1.0000 0.18764  0.90281  0.99961  Biso   1.000  H 
  C17      1.0000 0.23630  0.94950  0.92220  Biso   1.000  C 
  C18      1.0000 0.22570  0.95690  0.83790  Biso   1.000  C 
  C19      1.0000 0.15740  0.92160  0.77410  Biso   1.000  C 
  H11      1.0000 0.15105  0.92534  0.71845  Biso   1.000  H 
  C20      1.0000 0.09870  0.88060  0.79590  Biso   1.000  C 
  N6       1.0000 0.02500  0.83980  0.74640  Biso   1.000  N 
  Cd4      1.0000 0.93851  0.83838  0.61078  Biso   1.000  Cd
  N7       1.0000 0.98250  0.80250  0.51390  Biso   1.000  N 
  C21      1.0000 0.97920  0.74510  0.47430  Biso   1.000  C 
  C22      1.0000 0.94440  0.68710  0.48730  Biso   1.000  C 
  C23      1.0000 0.95150  0.63930  0.43820  Biso   1.000  C 
  C24      1.0000 0.99350  0.64710  0.37830  Biso   1.000  C 
  H12      1.0000 0.99753  0.61296  0.34646  Biso   1.000  H 
  C25      1.0000 0.02890  0.70440  0.36600  Biso   1.000  C 
  H13      1.0000 0.05608  0.70964  0.32609  Biso   1.000  H 
  C26      1.0000 0.02210  0.75390  0.41590  Biso   1.000  C 
  N8       1.0000 0.05080  0.81500  0.41910  Biso   1.000  N 
  C27      1.0000 0.02480  0.84050  0.47740  Biso   1.000  C 
  H14      1.0000 0.03554  0.88249  0.49184  Biso   1.000  H 
  Cd5      1.0000 0.11581  0.87072  0.34715  Biso   1.000  Cd
  N9       1.0000 0.02250  0.86400  0.21350  Biso   1.000  N 
  C28      1.0000 0.05300  0.84620  0.15470  Biso   1.000  C 
  H15      1.0000 0.11902  0.83820  0.16576  Biso   1.000  H 
  N10      1.0000 0.98060  0.84070  0.07750  Biso   1.000  N 
  C29      1.0000 0.89430  0.85240  0.08790  Biso   1.000  C 
  C30      1.0000 0.79680  0.85280  0.03200  Biso   1.000  C 
  H16      1.0000 0.77916  0.84486  0.97485  Biso   1.000  H 
  C31      1.0000 0.72620  0.86560  0.06370  Biso   1.000  C 
  H17      1.0000 0.65955  0.86471  0.02773  Biso   1.000  H 
  C32      1.0000 0.75350  0.87970  0.14850  Biso   1.000  C 
  H18      1.0000 0.70400  0.88928  0.16729  Biso   1.000  H 
  C33      1.0000 0.84880  0.88010  0.20530  Biso   1.000  C 
  H19      1.0000 0.86538  0.88839  0.26228  Biso   1.000  H 
  C34      1.0000 0.92160  0.86740  0.17340  Biso   1.000  C 
  N11      1.0000 0.26640  0.84450  0.37080  Biso   1.000  N 
  C35      1.0000 0.34640  0.88480  0.38610  Biso   1.000  C 
  C36      1.0000 0.34980  0.94950  0.37550  Biso   1.000  C 
  H20      1.0000 0.29266  0.97364  0.35583  Biso   1.000  H 
  C37      1.0000 0.44350  0.97590  0.39590  Biso   1.000  C 
  C38      1.0000 0.53000  0.94040  0.42740  Biso   1.000  C 
  H21      1.0000 0.59098  0.96020  0.44380  Biso   1.000  H 
  C39      1.0000 0.52670  0.87670  0.43470  Biso   1.000  C 
  H22      1.0000 0.58378  0.85257  0.45181  Biso   1.000  H 
  C40      1.0000 0.43210  0.84910  0.41490  Biso   1.000  C 
  N12      1.0000 0.40630  0.78840  0.41870  Biso   1.000  N 
  C41      1.0000 0.30970  0.78900  0.39410  Biso   1.000  C 
  H23      1.0000 0.27382  0.75310  0.39296  Biso   1.000  H 
  Cd6      1.0000 0.51094  0.71232  0.48196  Biso   1.000  Cd
  N13      1.0000 0.48060  0.65930  0.57750  Biso   1.000  N 
  C42      1.0000 0.55300  0.65380  0.65470  Biso   1.000  C 
  H24      1.0000 0.61902  0.66180  0.66576  Biso   1.000  H 
  N14      1.0000 0.52250  0.63600  0.71350  Biso   1.000  N 
  C43      1.0000 0.42160  0.63260  0.67340  Biso   1.000  C 
  C44      1.0000 0.34880  0.61990  0.70530  Biso   1.000  C 
  C45      1.0000 0.25350  0.62030  0.64850  Biso   1.000  C 
  C46      1.0000 0.22620  0.63440  0.56370  Biso   1.000  C 
  C47      1.0000 0.29680  0.64720  0.53200  Biso   1.000  C 
  H25      1.0000 0.27916  0.65514  0.47485  Biso   1.000  H 
  C48      1.0000 0.39430  0.64760  0.58790  Biso   1.000  C 
  H26      1.0000 0.15955  0.63529  0.52773  Biso   1.000  H 
  H27      1.0000 0.20400  0.61072  0.66729  Biso   1.000  H 
  H28      1.0000 0.36538  0.61161  0.76228  Biso   1.000  H 
  N15      1.0000 0.54380  0.67220  0.38120  Biso   1.000  N 
  C49      1.0000 0.61140  0.62810  0.37940  Biso   1.000  C 
  C50      1.0000 0.68020  0.59250  0.44380  Biso   1.000  C 
  C51      1.0000 0.73630  0.55050  0.42220  Biso   1.000  C 
  C52      1.0000 0.72570  0.54310  0.33790  Biso   1.000  C 
  C53      1.0000 0.65740  0.57840  0.27410  Biso   1.000  C 
  H29      1.0000 0.65105  0.57466  0.21845  Biso   1.000  H 
  C54      1.0000 0.59870  0.61940  0.29590  Biso   1.000  C 
  N16      1.0000 0.52500  0.66020  0.24640  Biso   1.000  N 
  C55      1.0000 0.49620  0.68830  0.30110  Biso   1.000  C 
  H30      1.0000 0.44546  0.71762  0.28431  Biso   1.000  H 
  H31      1.0000 0.76482  0.51434  0.32492  Biso   1.000  H 
  H32      1.0000 0.78258  0.52633  0.46413  Biso   1.000  H 
  H33      1.0000 0.68764  0.59719  0.49961  Biso   1.000  H 
  N17      1.0000 0.64790  0.75880  0.56670  Biso   1.000  N 
  C56      1.0000 0.73310  0.76410  0.55770  Biso   1.000  C 
  H34      1.0000 0.74827  0.73994  0.51961  Biso   1.000  H 
  N18      1.0000 0.79530  0.80660  0.60730  Biso   1.000  N 
  C57      1.0000 0.74580  0.83200  0.65170  Biso   1.000  C 
  C58      1.0000 0.77210  0.88020  0.71300  Biso   1.000  C 
  C59      1.0000 0.70410  0.89680  0.74400  Biso   1.000  C 
  C60      1.0000 0.61140  0.86860  0.71760  Biso   1.000  C 
  H35      1.0000 0.56638  0.88224  0.73953  Biso   1.000  H 
  C61      1.0000 0.58540  0.82040  0.65890  Biso   1.000  C 
  H36      1.0000 0.52443  0.80045  0.64206  Biso   1.000  H 
  C62      1.0000 0.65410  0.80320  0.62650  Biso   1.000  C 
  H37      1.0000 0.72005  0.92814  0.78455  Biso   1.000  H 
  H38      1.0000 0.83342  0.89977  0.73115  Biso   1.000  H 
  H39      1.0000 0.44816  0.01856  0.38825  Biso   1.000  H 
  N19      1.0000 0.12040  0.96140  0.40640  Biso   1.000  N 
  C63      1.0000 0.17500  0.97670  0.48930  Biso   1.000  C 
  C64      1.0000 0.24060  0.94140  0.55680  Biso   1.000  C 
  H40      1.0000 0.25456  0.90002  0.54951  Biso   1.000  H 
  C65      1.0000 0.28320  0.97010  0.63380  Biso   1.000  C 
  H41      1.0000 0.32623  0.94743  0.67966  Biso   1.000  H 
  C66      1.0000 0.26410  0.03160  0.64520  Biso   1.000  C 
  C67      1.0000 0.20140  0.06800  0.58100  Biso   1.000  C 
  H42      1.0000 0.18975  0.10962  0.58938  Biso   1.000  H 
  C68      1.0000 0.15580  0.03910  0.50170  Biso   1.000  C 
  N20      1.0000 0.08870  0.06200  0.42420  Biso   1.000  N 
  C69      1.0000 0.07200  0.01380  0.37230  Biso   1.000  C 
  H43      1.0000 0.02922  0.01638  0.31564  Biso   1.000  H 
  Cd7      1.0000 0.06149  0.16162  0.38922  Biso   1.000  Cd
  N21      1.0000 0.20470  0.19340  0.39270  Biso   1.000  N 
  C70      1.0000 0.25420  0.16800  0.34830  Biso   1.000  C 
  C71      1.0000 0.22790  0.11980  0.28700  Biso   1.000  C 
  C72      1.0000 0.29590  0.10320  0.25600  Biso   1.000  C 
  C73      1.0000 0.38860  0.13140  0.28240  Biso   1.000  C 
  C74      1.0000 0.41460  0.17960  0.34110  Biso   1.000  C 
  H44      1.0000 0.47557  0.19955  0.35794  Biso   1.000  H 
  C75      1.0000 0.34590  0.19680  0.37350  Biso   1.000  C 
  N22      1.0000 0.35210  0.24120  0.43330  Biso   1.000  N 
  C76      1.0000 0.26690  0.23590  0.44230  Biso   1.000  C 
  H45      1.0000 0.25173  0.26006  0.48039  Biso   1.000  H 
  Cd8      1.0000 0.48906  0.28768  0.51804  Biso   1.000  Cd
  N23      1.0000 0.45620  0.32780  0.61880  Biso   1.000  N 
  C77      1.0000 0.38860  0.37190  0.62060  Biso   1.000  C 
  C78      1.0000 0.31980  0.40750  0.55620  Biso   1.000  C 
  H46      1.0000 0.31236  0.40281  0.50039  Biso   1.000  H 
  C79      1.0000 0.26370  0.44950  0.57780  Biso   1.000  C 
  H47      1.0000 0.21742  0.47368  0.53587  Biso   1.000  H 
  C80      1.0000 0.27430  0.45690  0.66210  Biso   1.000  C 
  H48      1.0000 0.23518  0.48566  0.67508  Biso   1.000  H 
  C81      1.0000 0.34260  0.42160  0.72590  Biso   1.000  C 
  H49      1.0000 0.34895  0.42534  0.78155  Biso   1.000  H 
  C82      1.0000 0.40130  0.38060  0.70410  Biso   1.000  C 
  N24      1.0000 0.47500  0.33980  0.75360  Biso   1.000  N 
  C83      1.0000 0.50380  0.31170  0.69890  Biso   1.000  C 
  H50      1.0000 0.55454  0.28238  0.71569  Biso   1.000  H 
  Cd9      1.0000 0.56149  0.33838  0.88922  Biso   1.000  Cd
  N25      1.0000 0.51750  0.30250  0.98610  Biso   1.000  N 
  C84      1.0000 0.47520  0.34050  0.02260  Biso   1.000  C 
  H51      1.0000 0.46446  0.38249  0.00816  Biso   1.000  H 
  N26      1.0000 0.44920  0.31500  0.08090  Biso   1.000  N 
  C85      1.0000 0.47790  0.25390  0.08410  Biso   1.000  C 
  C86      1.0000 0.47110  0.20440  0.13400  Biso   1.000  C 
  H52      1.0000 0.44392  0.20964  0.17391  Biso   1.000  H 
  C87      1.0000 0.50650  0.14710  0.12170  Biso   1.000  C 
  H53      1.0000 0.50247  0.11296  0.15354  Biso   1.000  H 
  C88      1.0000 0.54850  0.13930  0.06180  Biso   1.000  C 
  H54      1.0000 0.57215  0.10021  0.05561  Biso   1.000  H 
  C89      1.0000 0.55560  0.18710  0.01270  Biso   1.000  C 
  H55      1.0000 0.58227  0.18142  0.97255  Biso   1.000  H 
  C90      1.0000 0.52080  0.24510  0.02570  Biso   1.000  C 
  Cd10     1.0000 0.38419  0.37072  0.15285  Biso   1.000  Cd
  N27      1.0000 0.23360  0.34450  0.12920  Biso   1.000  N 
  C91      1.0000 0.15360  0.38480  0.11390  Biso   1.000  C 
  C92      1.0000 0.06790  0.34910  0.08510  Biso   1.000  C 
  C93      1.0000 0.97330  0.37670  0.06530  Biso   1.000  C 
  H56      1.0000 0.91622  0.35257  0.04819  Biso   1.000  H 
  C94      1.0000 0.97000  0.44040  0.07260  Biso   1.000  C 
  H57      1.0000 0.90902  0.46020  0.05620  Biso   1.000  H 
  C95      1.0000 0.05650  0.47590  0.10410  Biso   1.000  C 
  H58      1.0000 0.05184  0.51856  0.11175  Biso   1.000  H 
  C96      1.0000 0.15020  0.44950  0.12450  Biso   1.000  C 
  H59      1.0000 0.20734  0.47364  0.14417  Biso   1.000  H 
  N28      1.0000 0.09370  0.28840  0.08130  Biso   1.000  N 
  C97      1.0000 0.19030  0.28900  0.10590  Biso   1.000  C 
  H60      1.0000 0.22618  0.25310  0.10704  Biso   1.000  H 
  Cd11     1.0000 0.98906  0.21232  0.01804  Biso   1.000  Cd
  N29      1.0000 0.95620  0.17220  0.11880  Biso   1.000  N 
  C98      1.0000 0.88860  0.12810  0.12060  Biso   1.000  C 
  C99      1.0000 0.81980  0.09250  0.05620  Biso   1.000  C 
  H61      1.0000 0.81236  0.09719  0.00039  Biso   1.000  H 
  C100     1.0000 0.76370  0.05050  0.07780  Biso   1.000  C 
  C101     1.0000 0.77430  0.04310  0.16210  Biso   1.000  C 
  H62      1.0000 0.73518  0.01434  0.17508  Biso   1.000  H 
  C102     1.0000 0.84260  0.07840  0.22590  Biso   1.000  C 
  H63      1.0000 0.84895  0.07466  0.28155  Biso   1.000  H 
  C103     1.0000 0.90130  0.11940  0.20410  Biso   1.000  C 
  N30      1.0000 0.97500  0.16020  0.25360  Biso   1.000  N 
  C104     1.0000 0.00380  0.18830  0.19890  Biso   1.000  C 
  H64      1.0000 0.05454  0.21762  0.21569  Biso   1.000  H 
  H65      1.0000 0.71742  0.02632  0.03587  Biso   1.000  H 
  N31      1.0000 0.85210  0.25880  0.93330  Biso   1.000  N 
  C105     1.0000 0.76690  0.26410  0.94230  Biso   1.000  C 
  H66      1.0000 0.75173  0.23994  0.98039  Biso   1.000  H 
  N32      1.0000 0.70470  0.30660  0.89270  Biso   1.000  N 
  C106     1.0000 0.75420  0.33200  0.84830  Biso   1.000  C 
  C107     1.0000 0.72790  0.38020  0.78700  Biso   1.000  C 
  H67      1.0000 0.66658  0.39977  0.76885  Biso   1.000  H 
  C108     1.0000 0.79590  0.39680  0.75600  Biso   1.000  C 
  H68      1.0000 0.77995  0.42814  0.71545  Biso   1.000  H 
  C109     1.0000 0.88860  0.36860  0.78240  Biso   1.000  C 
  C110     1.0000 0.91460  0.32040  0.84110  Biso   1.000  C 
  H69      1.0000 0.97557  0.30045  0.85794  Biso   1.000  H 
  C111     1.0000 0.84590  0.30320  0.87350  Biso   1.000  C 
  H70      1.0000 0.93362  0.38224  0.76047  Biso   1.000  H 
  N33      1.0000 0.01940  0.15930  0.92250  Biso   1.000  N 
  C112     1.0000 0.10570  0.14760  0.91210  Biso   1.000  C 
  C113     1.0000 0.07840  0.13260  0.82660  Biso   1.000  C 
  C114     1.0000 0.15120  0.11990  0.79470  Biso   1.000  C 
  H71      1.0000 0.13462  0.11161  0.73772  Biso   1.000  H 
  C115     1.0000 0.24650  0.12030  0.85150  Biso   1.000  C 
  C116     1.0000 0.27380  0.13440  0.93630  Biso   1.000  C 
  C117     1.0000 0.20320  0.14720  0.96800  Biso   1.000  C 
  H72      1.0000 0.22084  0.15514  0.02515  Biso   1.000  H 
  H73      1.0000 0.34045  0.13529  0.97227  Biso   1.000  H 
  H74      1.0000 0.29600  0.11072  0.83271  Biso   1.000  H 
  N34      1.0000 0.97750  0.13600  0.78650  Biso   1.000  N 
  C118     1.0000 0.94700  0.15380  0.84530  Biso   1.000  C 
  H75      1.0000 0.88098  0.16180  0.83424  Biso   1.000  H 
  Cd12     1.0000 0.88419  0.12928  0.65285  Biso   1.000  Cd
  N35      1.0000 0.87960  0.03860  0.59360  Biso   1.000  N 
  C119     1.0000 0.82500  0.02330  0.51070  Biso   1.000  C 
  C120     1.0000 0.75940  0.05860  0.44320  Biso   1.000  C 
  H76      1.0000 0.74545  0.09998  0.45049  Biso   1.000  H 
  C121     1.0000 0.71680  0.02990  0.36620  Biso   1.000  C 
  H77      1.0000 0.67377  0.05257  0.32034  Biso   1.000  H 
  C122     1.0000 0.73590  0.96840  0.35480  Biso   1.000  C 
  H78      1.0000 0.70508  0.95090  0.30134  Biso   1.000  H 
  C123     1.0000 0.79860  0.93200  0.41900  Biso   1.000  C 
  H79      1.0000 0.81025  0.89038  0.41063  Biso   1.000  H 
  C124     1.0000 0.84420  0.96090  0.49830  Biso   1.000  C 
  N36      1.0000 0.91130  0.93800  0.57580  Biso   1.000  N 
  C125     1.0000 0.92800  0.98620  0.62770  Biso   1.000  C 
  H80      1.0000 0.97078  0.98362  0.68436  Biso   1.000  H 
  N37      1.0000 0.94920  0.18500  0.58090  Biso   1.000  N 
  C126     1.0000 0.97520  0.15950  0.52260  Biso   1.000  C 
  H81      1.0000 0.96446  0.11751  0.50816  Biso   1.000  H 
  N38      1.0000 0.01750  0.19750  0.48610  Biso   1.000  N 
  C127     1.0000 0.02080  0.25490  0.52570  Biso   1.000  C 
  C128     1.0000 0.05560  0.31290  0.51270  Biso   1.000  C 
  H82      1.0000 0.08227  0.31858  0.47255  Biso   1.000  H 
  C129     1.0000 0.04850  0.36070  0.56180  Biso   1.000  C 
  H83      1.0000 0.07216  0.39979  0.55561  Biso   1.000  H 
  C130     1.0000 0.00650  0.35290  0.62170  Biso   1.000  C 
  H84      1.0000 0.00247  0.38704  0.65354  Biso   1.000  H 
  C131     1.0000 0.97110  0.29560  0.63400  Biso   1.000  C 
  H85      1.0000 0.94392  0.29036  0.67391  Biso   1.000  H 
  C132     1.0000 0.97790  0.24610  0.58410  Biso   1.000  C 
  N39      1.0000 0.73360  0.15550  0.62920  Biso   1.000  N 
  C133     1.0000 0.69030  0.21100  0.60590  Biso   1.000  C 
  H86      1.0000 0.72618  0.24690  0.60704  Biso   1.000  H 
  N40      1.0000 0.59370  0.21160  0.58130  Biso   1.000  N 
  C134     1.0000 0.56790  0.15090  0.58510  Biso   1.000  C 
  C135     1.0000 0.47330  0.12330  0.56530  Biso   1.000  C 
  H87      1.0000 0.41622  0.14743  0.54819  Biso   1.000  H 
  C136     1.0000 0.47000  0.05960  0.57260  Biso   1.000  C 
  H88      1.0000 0.40902  0.03980  0.55620  Biso   1.000  H 
  C137     1.0000 0.55650  0.02410  0.60410  Biso   1.000  C 
  C138     1.0000 0.65020  0.05050  0.62450  Biso   1.000  C 
  H89      1.0000 0.70734  0.02636  0.64417  Biso   1.000  H 
  C139     1.0000 0.65360  0.11520  0.61390  Biso   1.000  C 
  H90      1.0000 0.55184  0.98144  0.61175  Biso   1.000  H 
  N41      1.0000 0.47750  0.36400  0.28650  Biso   1.000  N 
  C140     1.0000 0.57840  0.36740  0.32660  Biso   1.000  C 
  C141     1.0000 0.65120  0.38010  0.29470  Biso   1.000  C 
  H91      1.0000 0.63462  0.38839  0.23772  Biso   1.000  H 
  C142     1.0000 0.74650  0.37970  0.35150  Biso   1.000  C 
  C143     1.0000 0.77380  0.36560  0.43630  Biso   1.000  C 
  H92      1.0000 0.84045  0.36471  0.47227  Biso   1.000  H 
  C144     1.0000 0.70320  0.35280  0.46800  Biso   1.000  C 
  H93      1.0000 0.72085  0.34486  0.52515  Biso   1.000  H 
  C145     1.0000 0.60570  0.35240  0.41210  Biso   1.000  C 
  N42      1.0000 0.51940  0.34070  0.42250  Biso   1.000  N 
  C146     1.0000 0.44700  0.34620  0.34530  Biso   1.000  C 
  H94      1.0000 0.38098  0.33820  0.33424  Biso   1.000  H 
  H95      1.0000 0.79600  0.38928  0.33271  Biso   1.000  H 
  N43      1.0000 0.37960  0.46140  0.09360  Biso   1.000  N 
  C147     1.0000 0.32500  0.47670  0.01070  Biso   1.000  C 
  C148     1.0000 0.25940  0.44140  0.94320  Biso   1.000  C 
  C149     1.0000 0.21680  0.47010  0.86620  Biso   1.000  C 
  H96      1.0000 0.17377  0.44743  0.82034  Biso   1.000  H 
  C150     1.0000 0.23590  0.53160  0.85480  Biso   1.000  C 
  H97      1.0000 0.20508  0.54910  0.80134  Biso   1.000  H 
  C151     1.0000 0.29860  0.56800  0.91900  Biso   1.000  C 
  H98      1.0000 0.31025  0.60962  0.91063  Biso   1.000  H 
  C152     1.0000 0.34420  0.53910  0.99830  Biso   1.000  C 
  N44      1.0000 0.41130  0.56200  0.07580  Biso   1.000  N 
  C153     1.0000 0.42800  0.51380  0.12770  Biso   1.000  C 
  H99      1.0000 0.47078  0.51638  0.18436  Biso   1.000  H 
  H100     1.0000 0.24545  0.40002  0.95049  Biso   1.000  H 
  N45      1.0000 0.58870  0.43800  0.92420  Biso   1.000  N 
  C154     1.0000 0.57200  0.48620  0.87230  Biso   1.000  C 
  H101     1.0000 0.52922  0.48362  0.81564  Biso   1.000  H 
  N46      1.0000 0.62040  0.53860  0.90640  Biso   1.000  N 
  C155     1.0000 0.67500  0.52330  0.98930  Biso   1.000  C 
  C156     1.0000 0.65580  0.46090  0.00170  Biso   1.000  C 
  C157     1.0000 0.70140  0.43200  0.08100  Biso   1.000  C 
  H102     1.0000 0.68975  0.39038  0.08937  Biso   1.000  H 
  C158     1.0000 0.76410  0.46840  0.14520  Biso   1.000  C 
  H103     1.0000 0.79492  0.45090  0.19866  Biso   1.000  H 
  C159     1.0000 0.78320  0.52990  0.13380  Biso   1.000  C 
  H104     1.0000 0.82623  0.55257  0.17966  Biso   1.000  H 
  C160     1.0000 0.74060  0.55860  0.05680  Biso   1.000  C 
  H105     1.0000 0.75456  0.59998  0.04951  Biso   1.000  H 
  H106     1.0000 0.43362  0.11776  0.26047  Biso   1.000  H 
  H107     1.0000 0.27995  0.07186  0.21545  Biso   1.000  H 
  H108     1.0000 0.16658  0.10023  0.26885  Biso   1.000  H 
  H109     1.0000 0.29492  0.04910  0.69866  Biso   1.000  H 
  H110     1.0000 0.92785  0.60021  0.44439  Biso   1.000  H 
  H111     1.0000 0.91773  0.68142  0.52745  Biso   1.000  H 
  C161     1.0000 0.99620  0.81170  0.80110  Biso   1.000  C 
  H112     1.0000 0.94547  0.78238  0.78431  Biso   1.000  H 
  H113     1.0000 0.26482  0.98566  0.82492  Biso   1.000  H 
  H114     1.0000 0.28258  0.97368  0.96413  Biso   1.000  H 
  N47      1.0000 0.90630  0.71160  0.91870  Biso   1.000  N 
  C162     1.0000 0.93210  0.65090  0.91490  Biso   1.000  C 
  C163     1.0000 0.84640  0.61520  0.88610  Biso   1.000  C 
  C164     1.0000 0.84980  0.55050  0.87550  Biso   1.000  C 
  H115     1.0000 0.79266  0.52636  0.85583  Biso   1.000  H 
  C165     1.0000 0.94350  0.52410  0.89590  Biso   1.000  C 
  H116     1.0000 0.94816  0.48144  0.88825  Biso   1.000  H 
  C166     1.0000 0.03000  0.55960  0.92740  Biso   1.000  C 
  H117     1.0000 0.09098  0.53980  0.94380  Biso   1.000  H 
  C167     1.0000 0.02670  0.62330  0.93470  Biso   1.000  C 
  H118     1.0000 0.08378  0.64743  0.95181  Biso   1.000  H 
  N48      1.0000 0.76640  0.65550  0.87080  Biso   1.000  N 
  C168     1.0000 0.80970  0.71100  0.89410  Biso   1.000  C 
  H119     1.0000 0.77382  0.74690  0.89296  Biso   1.000  H 
  H120     1.0000 0.22005  0.57186  0.28455  Biso   1.000  H 
