data_image0
_cell_length_a       10.0921
_cell_length_b       10.4958
_cell_length_c       10.8431
_cell_angle_alpha    86.403
_cell_angle_beta     79.041
_cell_angle_gamma    81.993

_symmetry_space_group_name_H-M    "P 1"
_symmetry_int_tables_number       1

loop_
  _symmetry_equiv_pos_as_xyz
  'x, y, z'

loop_
  _atom_site_label
  _atom_site_occupancy
  _atom_site_fract_x
  _atom_site_fract_y
  _atom_site_fract_z
  _atom_site_thermal_displace_type
  _atom_site_B_iso_or_equiv
  _atom_site_type_symbol
  Cu1      1.0000 0.13648  0.11383  0.08810  Biso   1.000  Cu
  O1       1.0000 0.13240  0.29870  0.09880  Biso   1.000  O 
  C1       1.0000 0.23510  0.33320  0.13660  Biso   1.000  C 
  O2       1.0000 0.32110  0.25440  0.17930  Biso   1.000  O 
  C2       1.0000 0.24450  0.46930  0.12990  Biso   1.000  C 
  S1       1.0000 0.11798  0.57650  0.07980  Biso   1.000  S 
  C3       1.0000 0.19670  0.70510  0.10070  Biso   1.000  C 
  C4       1.0000 0.31740  0.66750  0.14120  Biso   1.000  C 
  H1       1.0000 0.37420  0.72480  0.15680  Biso   1.000  H 
  C5       1.0000 0.34570  0.53500  0.15660  Biso   1.000  C 
  H2       1.0000 0.42440  0.49410  0.18210  Biso   1.000  H 
  C6       1.0000 0.13180  0.83820  0.07490  Biso   1.000  C 
  O3       1.0000 0.02720  0.85040  0.02840  Biso   1.000  O 
  Cu2      1.0000 0.86352  0.88617  0.91190  Biso   1.000  Cu
  N1       1.0000 0.99730  0.89190  0.74830  Biso   1.000  N 
  C7       1.0000 0.99210  0.82680  0.64920  Biso   1.000  C 
  H3       1.0000 0.92670  0.77120  0.65590  Biso   1.000  H 
  C8       1.0000 0.08080  0.83850  0.53530  Biso   1.000  C 
  H4       1.0000 0.07240  0.79310  0.46680  Biso   1.000  H 
  C9       1.0000 0.18230  0.91840  0.52390  Biso   1.000  C 
  C10      1.0000 0.28140  0.94020  0.40150  Biso   1.000  C 
  H5       1.0000 0.24210  0.92250  0.33030  Biso   1.000  H 
  C11      1.0000 0.41260  0.85190  0.40290  Biso   1.000  C 
  H6       1.0000 0.39320  0.76340  0.41160  Biso   1.000  H 
  H7       1.0000 0.44930  0.86920  0.47560  Biso   1.000  H 
  C12      1.0000 0.51960  0.86650  0.28530  Biso   1.000  C 
  C13      1.0000 0.51450  0.96920  0.20160  Biso   1.000  C 
  C14      1.0000 0.61550  0.97550  0.09550  Biso   1.000  C 
  H8       1.0000 0.61050  0.04640  0.03990  Biso   1.000  H 
  N2       1.0000 0.72090  0.88030  0.07180  Biso   1.000  N 
  C15      1.0000 0.72700  0.78290  0.15280  Biso   1.000  C 
  H9       1.0000 0.80110  0.71880  0.13730  Biso   1.000  H 
  C16      1.0000 0.62920  0.76900  0.26110  Biso   1.000  C 
  H10      1.0000 0.63690  0.69710  0.31530  Biso   1.000  H 
  H11      1.0000 0.44260  0.03550  0.21570  Biso   1.000  H 
  H12      1.0000 0.29900  0.02920  0.39330  Biso   1.000  H 
  C17      1.0000 0.18820  0.97990  0.62970  Biso   1.000  C 
  C18      1.0000 0.09520  0.96510  0.73890  Biso   1.000  C 
  H13      1.0000 0.10190  0.00860  0.80910  Biso   1.000  H 
  H14      1.0000 0.25570  0.03230  0.62810  Biso   1.000  H 
  O4       1.0000 0.86760  0.70130  0.90120  Biso   1.000  O 
  C19      1.0000 0.76490  0.66680  0.86340  Biso   1.000  C 
  O5       1.0000 0.67890  0.74560  0.82070  Biso   1.000  O 
  C20      1.0000 0.75550  0.53070  0.87010  Biso   1.000  C 
  S2       1.0000 0.88202  0.42350  0.92020  Biso   1.000  S 
  C21      1.0000 0.80330  0.29490  0.89930  Biso   1.000  C 
  C22      1.0000 0.68260  0.33250  0.85880  Biso   1.000  C 
  C23      1.0000 0.65430  0.46500  0.84340  Biso   1.000  C 
  H15      1.0000 0.57560  0.50590  0.81790  Biso   1.000  H 
  H16      1.0000 0.62580  0.27520  0.84320  Biso   1.000  H 
  C24      1.0000 0.86820  0.16180  0.92510  Biso   1.000  C 
  O6       1.0000 0.97280  0.14960  0.97160  Biso   1.000  O 
  O7       1.0000 0.81160  0.07170  0.89290  Biso   1.000  O 
  O8       1.0000 0.18840  0.92830  0.10710  Biso   1.000  O 
  N3       1.0000 0.00270  0.10810  0.25170  Biso   1.000  N 
  C25      1.0000 0.00790  0.17320  0.35080  Biso   1.000  C 
  H17      1.0000 0.07330  0.22880  0.34410  Biso   1.000  H 
  C26      1.0000 0.91920  0.16150  0.46470  Biso   1.000  C 
  C27      1.0000 0.81770  0.08160  0.47610  Biso   1.000  C 
  C28      1.0000 0.81180  0.02010  0.37030  Biso   1.000  C 
  C29      1.0000 0.90480  0.03490  0.26110  Biso   1.000  C 
  H18      1.0000 0.89810  0.99140  0.19090  Biso   1.000  H 
  H19      1.0000 0.74430  0.96770  0.37190  Biso   1.000  H 
  C30      1.0000 0.71860  0.05980  0.59850  Biso   1.000  C 
  C31      1.0000 0.58740  0.14810  0.59710  Biso   1.000  C 
  H20      1.0000 0.55070  0.13080  0.52440  Biso   1.000  H 
  H21      1.0000 0.60680  0.23660  0.58840  Biso   1.000  H 
  C32      1.0000 0.48040  0.13350  0.71470  Biso   1.000  C 
  C33      1.0000 0.48550  0.03080  0.79840  Biso   1.000  C 
  C34      1.0000 0.38450  0.02450  0.90450  Biso   1.000  C 
  N4       1.0000 0.27910  0.11970  0.92820  Biso   1.000  N 
  C35      1.0000 0.27300  0.21710  0.84720  Biso   1.000  C 
  C36      1.0000 0.37080  0.23100  0.73890  Biso   1.000  C 
  H22      1.0000 0.36310  0.30290  0.68470  Biso   1.000  H 
  H23      1.0000 0.19890  0.28120  0.86270  Biso   1.000  H 
  H24      1.0000 0.38950  0.95360  0.96010  Biso   1.000  H 
  H25      1.0000 0.55740  0.96450  0.78430  Biso   1.000  H 
  H26      1.0000 0.75790  0.07750  0.66970  Biso   1.000  H 
  H27      1.0000 0.70100  0.97080  0.60670  Biso   1.000  H 
  H28      1.0000 0.92760  0.20690  0.53320  Biso   1.000  H 
