data_image0
_cell_length_a       14.2546
_cell_length_b       23.6813
_cell_length_c       24.0132
_cell_angle_alpha    90
_cell_angle_beta     90
_cell_angle_gamma    90

_symmetry_space_group_name_H-M    "P 1"
_symmetry_int_tables_number       1

loop_
  _symmetry_equiv_pos_as_xyz
  'x, y, z'

loop_
  _atom_site_label
  _atom_site_occupancy
  _atom_site_fract_x
  _atom_site_fract_y
  _atom_site_fract_z
  _atom_site_thermal_displace_type
  _atom_site_B_iso_or_equiv
  _atom_site_type_symbol
  Ge1      1.0000 0.56324  0.98297  0.13924  Biso   1.000  Ge
  C1       1.0000 0.56590  0.90929  0.10323  Biso   1.000  C 
  C2       1.0000 0.48430  0.88245  0.08931  Biso   1.000  C 
  H1       1.0000 0.42610  0.90150  0.09370  Biso   1.000  H 
  C3       1.0000 0.48570  0.82739  0.06880  Biso   1.000  C 
  H2       1.0000 0.42800  0.80910  0.06050  Biso   1.000  H 
  C4       1.0000 0.56690  0.79942  0.06046  Biso   1.000  C 
  C5       1.0000 0.53990  0.73680  0.04350  Biso   1.000  C 
  Zn1      1.0000 0.56113  0.63644  0.01346  Biso   1.000  Zn
  O1       1.0000 0.59146  0.60848  0.08897  Biso   1.000  O 
  C6       1.0000 0.57426  0.55870  0.10464  Biso   1.000  C 
  O2       1.0000 0.55539  0.51810  0.07365  Biso   1.000  O 
  Zn2      1.0000 0.50000  0.50000  0.00000  Biso   1.000  Zn
  O3       1.0000 0.38227  0.47633  0.04671  Biso   1.000  O 
  C7       1.0000 0.32350  0.43742  0.05102  Biso   1.000  C 
  O4       1.0000 0.33293  0.38721  0.03334  Biso   1.000  O 
  Zn3      1.0000 0.43887  0.36356  0.98654  Biso   1.000  Zn
  C8       1.0000 0.46010  0.26320  0.95650  Biso   1.000  C 
  O5       1.0000 0.39010  0.28660  0.98070  Biso   1.000  O 
  O6       1.0000 0.53060  0.28900  0.94960  Biso   1.000  O 
  C9       1.0000 0.43310  0.20058  0.93954  Biso   1.000  C 
  C10      1.0000 0.51430  0.17261  0.93120  Biso   1.000  C 
  H3       1.0000 0.57200  0.19090  0.93950  Biso   1.000  H 
  C11      1.0000 0.51570  0.11755  0.91069  Biso   1.000  C 
  H4       1.0000 0.57390  0.09850  0.90630  Biso   1.000  H 
  C12      1.0000 0.43410  0.09071  0.89677  Biso   1.000  C 
  C13      1.0000 0.35200  0.11842  0.90891  Biso   1.000  C 
  H5       1.0000 0.29360  0.10010  0.90250  Biso   1.000  H 
  C14      1.0000 0.35310  0.17254  0.93032  Biso   1.000  C 
  H6       1.0000 0.29520  0.19040  0.93880  Biso   1.000  H 
  Ge2      1.0000 0.43676  0.01703  0.86076  Biso   1.000  Ge
  C15      1.0000 0.42867  0.02854  0.78064  Biso   1.000  C 
  C16      1.0000 0.38340  0.07531  0.75895  Biso   1.000  C 
  H7       1.0000 0.35350  0.10120  0.78340  Biso   1.000  H 
  C17      1.0000 0.38100  0.08479  0.70242  Biso   1.000  C 
  H8       1.0000 0.35020  0.11740  0.68830  Biso   1.000  H 
  C18      1.0000 0.42317  0.04718  0.66591  Biso   1.000  C 
  C19      1.0000 0.42574  0.05870  0.60464  Biso   1.000  C 
  O7       1.0000 0.44461  0.01810  0.57365  Biso   1.000  O 
  Zn4      1.0000 0.50000  0.00000  0.50000  Biso   1.000  Zn
  O8       1.0000 0.38227  0.02367  0.45329  Biso   1.000  O 
  C20      1.0000 0.32350  0.06258  0.44898  Biso   1.000  C 
  O9       1.0000 0.33293  0.11279  0.46666  Biso   1.000  O 
  Zn5      1.0000 0.43887  0.13644  0.51346  Biso   1.000  Zn
  O10      1.0000 0.55051  0.08932  0.49336  Biso   1.000  O 
  C21      1.0000 0.58557  0.11030  0.44829  Biso   1.000  C 
  O11      1.0000 0.54629  0.14932  0.42326  Biso   1.000  O 
  C22      1.0000 0.67501  0.08558  0.42793  Biso   1.000  C 
  C23      1.0000 0.73438  0.05713  0.46409  Biso   1.000  C 
  C24      1.0000 0.81287  0.02964  0.44460  Biso   1.000  C 
  H9       1.0000 0.85400  0.01160  0.47010  Biso   1.000  H 
  C25      1.0000 0.83257  0.02805  0.38780  Biso   1.000  C 
  C26      1.0000 0.77435  0.05803  0.35183  Biso   1.000  C 
  C27      1.0000 0.69661  0.08686  0.37183  Biso   1.000  C 
  H10      1.0000 0.65800  0.10760  0.34690  Biso   1.000  H 
  H11      1.0000 0.78800  0.05880  0.31310  Biso   1.000  H 
  Ge3      1.0000 0.93676  0.98297  0.36076  Biso   1.000  Ge
  C28      1.0000 0.93410  0.90929  0.39677  Biso   1.000  C 
  C29      1.0000 0.85200  0.88158  0.40891  Biso   1.000  C 
  H12      1.0000 0.79360  0.89990  0.40250  Biso   1.000  H 
  C30      1.0000 0.85310  0.82746  0.43032  Biso   1.000  C 
  H13      1.0000 0.79520  0.80960  0.43880  Biso   1.000  H 
  C31      1.0000 0.93310  0.79942  0.43954  Biso   1.000  C 
  C32      1.0000 0.96010  0.73680  0.45650  Biso   1.000  C 
  O12      1.0000 0.03060  0.71100  0.44960  Biso   1.000  O 
  Zn6      1.0000 0.93887  0.63644  0.48654  Biso   1.000  Zn
  O13      1.0000 0.90854  0.60848  0.41103  Biso   1.000  O 
  C33      1.0000 0.92574  0.55870  0.39536  Biso   1.000  C 
  O14      1.0000 0.94461  0.51810  0.42635  Biso   1.000  O 
  Zn7      1.0000 0.00000  0.50000  0.50000  Biso   1.000  Zn
  O15      1.0000 0.11773  0.47633  0.45329  Biso   1.000  O 
  C34      1.0000 0.17650  0.43742  0.44898  Biso   1.000  C 
  O16      1.0000 0.16707  0.38721  0.46666  Biso   1.000  O 
  Zn8      1.0000 0.06113  0.36356  0.51346  Biso   1.000  Zn
  O17      1.0000 0.09146  0.39152  0.58897  Biso   1.000  O 
  C35      1.0000 0.07426  0.44130  0.60464  Biso   1.000  C 
  O18      1.0000 0.05539  0.48190  0.57365  Biso   1.000  O 
  C36      1.0000 0.07683  0.45282  0.66591  Biso   1.000  C 
  C37      1.0000 0.11900  0.41521  0.70242  Biso   1.000  C 
  H14      1.0000 0.14980  0.38260  0.68830  Biso   1.000  H 
  C38      1.0000 0.11660  0.42469  0.75895  Biso   1.000  C 
  H15      1.0000 0.14650  0.39880  0.78340  Biso   1.000  H 
  C39      1.0000 0.07133  0.47146  0.78064  Biso   1.000  C 
  C40      1.0000 0.02950  0.50904  0.74356  Biso   1.000  C 
  C41      1.0000 0.03245  0.49953  0.68707  Biso   1.000  C 
  H16      1.0000 0.00340  0.52560  0.66240  Biso   1.000  H 
  H17      1.0000 0.99850  0.54160  0.75750  Biso   1.000  H 
  Ge4      1.0000 0.06324  0.48297  0.86076  Biso   1.000  Ge
  C42      1.0000 0.06590  0.40929  0.89677  Biso   1.000  C 
  C43      1.0000 0.14800  0.38158  0.90891  Biso   1.000  C 
  H18      1.0000 0.20640  0.39990  0.90250  Biso   1.000  H 
  C44      1.0000 0.14690  0.32746  0.93032  Biso   1.000  C 
  H19      1.0000 0.20480  0.30960  0.93880  Biso   1.000  H 
  C45      1.0000 0.06690  0.29942  0.93954  Biso   1.000  C 
  C46      1.0000 0.03990  0.23680  0.95650  Biso   1.000  C 
  Zn9      1.0000 0.06113  0.13644  0.98654  Biso   1.000  Zn
  O19      1.0000 0.09146  0.10848  0.91103  Biso   1.000  O 
  C47      1.0000 0.07426  0.05870  0.89536  Biso   1.000  C 
  O20      1.0000 0.05539  0.01810  0.92635  Biso   1.000  O 
  Zn10     1.0000 0.00000  0.00000  0.00000  Biso   1.000  Zn
  O21      1.0000 0.11773  0.02367  0.04671  Biso   1.000  O 
  C48      1.0000 0.17650  0.06258  0.05102  Biso   1.000  C 
  O22      1.0000 0.16707  0.11279  0.03334  Biso   1.000  O 
  C49      1.0000 0.26851  0.04899  0.07784  Biso   1.000  C 
  C50      1.0000 0.27360  0.00776  0.11893  Biso   1.000  C 
  H20      1.0000 0.21810  0.99020  0.13230  Biso   1.000  H 
  C51      1.0000 0.36037  0.99241  0.14020  Biso   1.000  C 
  H21      1.0000 0.36360  0.96510  0.16910  Biso   1.000  H 
  C52      1.0000 0.44279  0.01618  0.11996  Biso   1.000  C 
  C53      1.0000 0.43602  0.05850  0.07978  Biso   1.000  C 
  H22      1.0000 0.49150  0.07590  0.06610  Biso   1.000  H 
  C54      1.0000 0.35037  0.07532  0.05972  Biso   1.000  C 
  H23      1.0000 0.34690  0.10510  0.03330  Biso   1.000  H 
  O23      1.0000 0.94949  0.08932  0.00664  Biso   1.000  O 
  C55      1.0000 0.91443  0.11030  0.05171  Biso   1.000  C 
  O24      1.0000 0.95371  0.14932  0.07674  Biso   1.000  O 
  C56      1.0000 0.82499  0.08558  0.07207  Biso   1.000  C 
  C57      1.0000 0.76562  0.05713  0.03591  Biso   1.000  C 
  C58      1.0000 0.68713  0.02964  0.05540  Biso   1.000  C 
  H24      1.0000 0.64600  0.01160  0.02990  Biso   1.000  H 
  C59      1.0000 0.66743  0.02805  0.11220  Biso   1.000  C 
  C60      1.0000 0.72565  0.05803  0.14817  Biso   1.000  C 
  H25      1.0000 0.71200  0.05880  0.18690  Biso   1.000  H 
  C61      1.0000 0.80339  0.08686  0.12817  Biso   1.000  C 
  H26      1.0000 0.84200  0.10760  0.15310  Biso   1.000  H 
  H27      1.0000 0.77930  0.05660  0.99720  Biso   1.000  H 
  O25      1.0000 0.05051  0.91068  0.99336  Biso   1.000  O 
  C62      1.0000 0.08557  0.88970  0.94829  Biso   1.000  C 
  O26      1.0000 0.04629  0.85068  0.92326  Biso   1.000  O 
  C63      1.0000 0.17501  0.91442  0.92793  Biso   1.000  C 
  C64      1.0000 0.23438  0.94287  0.96409  Biso   1.000  C 
  C65      1.0000 0.31287  0.97036  0.94460  Biso   1.000  C 
  H28      1.0000 0.35400  0.98840  0.97010  Biso   1.000  H 
  C66      1.0000 0.33257  0.97195  0.88780  Biso   1.000  C 
  C67      1.0000 0.27435  0.94197  0.85183  Biso   1.000  C 
  H29      1.0000 0.28800  0.94120  0.81310  Biso   1.000  H 
  C68      1.0000 0.19661  0.91314  0.87183  Biso   1.000  C 
  H30      1.0000 0.15800  0.89240  0.84690  Biso   1.000  H 
  H31      1.0000 0.22070  0.94340  0.00280  Biso   1.000  H 
  Zn11     1.0000 0.93887  0.86356  0.01346  Biso   1.000  Zn
  C69      1.0000 0.96010  0.76320  0.04350  Biso   1.000  C 
  O27      1.0000 0.03060  0.78900  0.05040  Biso   1.000  O 
  O28      1.0000 0.89010  0.78660  0.01930  Biso   1.000  O 
  C70      1.0000 0.93310  0.70058  0.06046  Biso   1.000  C 
  C71      1.0000 0.01430  0.67261  0.06880  Biso   1.000  C 
  C72      1.0000 0.01570  0.61755  0.08931  Biso   1.000  C 
  H32      1.0000 0.07390  0.59850  0.09370  Biso   1.000  H 
  C73      1.0000 0.93410  0.59071  0.10323  Biso   1.000  C 
  C74      1.0000 0.85200  0.61842  0.09109  Biso   1.000  C 
  C75      1.0000 0.85310  0.67254  0.06968  Biso   1.000  C 
  H33      1.0000 0.79520  0.69040  0.06120  Biso   1.000  H 
  H34      1.0000 0.79360  0.60010  0.09750  Biso   1.000  H 
  Ge5      1.0000 0.93676  0.51703  0.13924  Biso   1.000  Ge
  C76      1.0000 0.83257  0.47195  0.11220  Biso   1.000  C 
  C77      1.0000 0.77435  0.44197  0.14817  Biso   1.000  C 
  C78      1.0000 0.69661  0.41314  0.12817  Biso   1.000  C 
  H35      1.0000 0.65800  0.39240  0.15310  Biso   1.000  H 
  C79      1.0000 0.67501  0.41442  0.07207  Biso   1.000  C 
  C80      1.0000 0.58557  0.38970  0.05171  Biso   1.000  C 
  O29      1.0000 0.54629  0.35068  0.07674  Biso   1.000  O 
  O30      1.0000 0.55051  0.41068  0.00664  Biso   1.000  O 
  C81      1.0000 0.73438  0.44287  0.03591  Biso   1.000  C 
  C82      1.0000 0.81287  0.47036  0.05540  Biso   1.000  C 
  H36      1.0000 0.85400  0.48840  0.02990  Biso   1.000  H 
  H37      1.0000 0.72070  0.44340  0.99720  Biso   1.000  H 
  H38      1.0000 0.78800  0.44120  0.18690  Biso   1.000  H 
  C83      1.0000 0.92867  0.52854  0.21936  Biso   1.000  C 
  C84      1.0000 0.97050  0.49096  0.25644  Biso   1.000  C 
  C85      1.0000 0.96755  0.50047  0.31293  Biso   1.000  C 
  H39      1.0000 0.99660  0.47440  0.33760  Biso   1.000  H 
  C86      1.0000 0.92317  0.54718  0.33409  Biso   1.000  C 
  C87      1.0000 0.88100  0.58479  0.29758  Biso   1.000  C 
  C88      1.0000 0.88340  0.57531  0.24105  Biso   1.000  C 
  H40      1.0000 0.85350  0.60120  0.21660  Biso   1.000  H 
  H41      1.0000 0.85020  0.61740  0.31170  Biso   1.000  H 
  H42      1.0000 0.00150  0.45840  0.24250  Biso   1.000  H 
  C89      1.0000 0.05721  0.48382  0.11996  Biso   1.000  C 
  C90      1.0000 0.13963  0.50759  0.14020  Biso   1.000  C 
  H43      1.0000 0.13640  0.53490  0.16910  Biso   1.000  H 
  C91      1.0000 0.22640  0.49224  0.11893  Biso   1.000  C 
  H44      1.0000 0.28190  0.50980  0.13230  Biso   1.000  H 
  C92      1.0000 0.23149  0.45101  0.07784  Biso   1.000  C 
  C93      1.0000 0.14963  0.42468  0.05972  Biso   1.000  C 
  H45      1.0000 0.15310  0.39490  0.03330  Biso   1.000  H 
  C94      1.0000 0.06398  0.44150  0.07978  Biso   1.000  C 
  H46      1.0000 0.00850  0.42410  0.06610  Biso   1.000  H 
  H47      1.0000 0.07200  0.69090  0.06050  Biso   1.000  H 
  O31      1.0000 0.90854  0.89152  0.08897  Biso   1.000  O 
  C95      1.0000 0.92574  0.94130  0.10464  Biso   1.000  C 
  O32      1.0000 0.94461  0.98190  0.07365  Biso   1.000  O 
  C96      1.0000 0.92317  0.95282  0.16591  Biso   1.000  C 
  C97      1.0000 0.88100  0.91521  0.20242  Biso   1.000  C 
  H48      1.0000 0.85020  0.88260  0.18830  Biso   1.000  H 
  C98      1.0000 0.88340  0.92469  0.25895  Biso   1.000  C 
  H49      1.0000 0.85350  0.89880  0.28340  Biso   1.000  H 
  C99      1.0000 0.92867  0.97146  0.28064  Biso   1.000  C 
  C100     1.0000 0.97050  0.00904  0.24356  Biso   1.000  C 
  H50      1.0000 0.00150  0.04160  0.25750  Biso   1.000  H 
  C101     1.0000 0.96755  0.99953  0.18707  Biso   1.000  C 
  H51      1.0000 0.99660  0.02560  0.16240  Biso   1.000  H 
  O33      1.0000 0.83293  0.88721  0.96666  Biso   1.000  O 
  C102     1.0000 0.82350  0.93742  0.94898  Biso   1.000  C 
  O34      1.0000 0.88227  0.97633  0.95329  Biso   1.000  O 
  C103     1.0000 0.73149  0.95101  0.92216  Biso   1.000  C 
  C104     1.0000 0.72640  0.99224  0.88107  Biso   1.000  C 
  C105     1.0000 0.63963  0.00759  0.85980  Biso   1.000  C 
  H52      1.0000 0.63640  0.03490  0.83090  Biso   1.000  H 
  C106     1.0000 0.55721  0.98382  0.88004  Biso   1.000  C 
  C107     1.0000 0.56398  0.94150  0.92022  Biso   1.000  C 
  H53      1.0000 0.50850  0.92410  0.93390  Biso   1.000  H 
  C108     1.0000 0.64963  0.92468  0.94028  Biso   1.000  C 
  H54      1.0000 0.65310  0.89490  0.96670  Biso   1.000  H 
  H55      1.0000 0.78190  0.00980  0.86770  Biso   1.000  H 
  C109     1.0000 0.07683  0.04718  0.83409  Biso   1.000  C 
  C110     1.0000 0.11900  0.08479  0.79758  Biso   1.000  C 
  C111     1.0000 0.11660  0.07531  0.74105  Biso   1.000  C 
  H56      1.0000 0.14650  0.10120  0.71660  Biso   1.000  H 
  C112     1.0000 0.07133  0.02854  0.71936  Biso   1.000  C 
  Ge6      1.0000 0.06324  0.01703  0.63924  Biso   1.000  Ge
  C113     1.0000 0.06590  0.09071  0.60323  Biso   1.000  C 
  C114     1.0000 0.14800  0.11842  0.59109  Biso   1.000  C 
  C115     1.0000 0.14690  0.17254  0.56968  Biso   1.000  C 
  C116     1.0000 0.06690  0.20058  0.56046  Biso   1.000  C 
  C117     1.0000 0.03990  0.26320  0.54350  Biso   1.000  C 
  O35      1.0000 0.10990  0.28660  0.51930  Biso   1.000  O 
  O36      1.0000 0.96940  0.28900  0.55040  Biso   1.000  O 
  C118     1.0000 0.98570  0.17261  0.56880  Biso   1.000  C 
  C119     1.0000 0.98430  0.11755  0.58931  Biso   1.000  C 
  H57      1.0000 0.92610  0.09850  0.59370  Biso   1.000  H 
  H58      1.0000 0.92800  0.19090  0.56050  Biso   1.000  H 
  H59      1.0000 0.20480  0.19040  0.56120  Biso   1.000  H 
  H60      1.0000 0.20640  0.10010  0.59750  Biso   1.000  H 
  C120     1.0000 0.16743  0.97195  0.61220  Biso   1.000  C 
  C121     1.0000 0.18713  0.97036  0.55540  Biso   1.000  C 
  H61      1.0000 0.14600  0.98840  0.52990  Biso   1.000  H 
  C122     1.0000 0.26562  0.94287  0.53591  Biso   1.000  C 
  H62      1.0000 0.27930  0.94340  0.49720  Biso   1.000  H 
  C123     1.0000 0.32499  0.91442  0.57207  Biso   1.000  C 
  C124     1.0000 0.41443  0.88970  0.55171  Biso   1.000  C 
  O37      1.0000 0.45371  0.85068  0.57674  Biso   1.000  O 
  O38      1.0000 0.44949  0.91068  0.50664  Biso   1.000  O 
  Zn12     1.0000 0.56113  0.86356  0.48654  Biso   1.000  Zn
  O39      1.0000 0.46940  0.78900  0.44960  Biso   1.000  O 
  C125     1.0000 0.53990  0.76320  0.45650  Biso   1.000  C 
  O40      1.0000 0.60990  0.78660  0.48070  Biso   1.000  O 
  C126     1.0000 0.56690  0.70058  0.43954  Biso   1.000  C 
  C127     1.0000 0.48570  0.67261  0.43120  Biso   1.000  C 
  C128     1.0000 0.48430  0.61755  0.41069  Biso   1.000  C 
  H63      1.0000 0.42610  0.59850  0.40630  Biso   1.000  H 
  C129     1.0000 0.56590  0.59071  0.39677  Biso   1.000  C 
  C130     1.0000 0.64800  0.61842  0.40891  Biso   1.000  C 
  H64      1.0000 0.70640  0.60010  0.40250  Biso   1.000  H 
  C131     1.0000 0.64690  0.67254  0.43032  Biso   1.000  C 
  H65      1.0000 0.70480  0.69040  0.43880  Biso   1.000  H 
  Ge7      1.0000 0.56324  0.51703  0.36076  Biso   1.000  Ge
  C132     1.0000 0.44279  0.48382  0.38004  Biso   1.000  C 
  C133     1.0000 0.43602  0.44150  0.42022  Biso   1.000  C 
  C134     1.0000 0.35037  0.42468  0.44028  Biso   1.000  C 
  H66      1.0000 0.34690  0.39490  0.46670  Biso   1.000  H 
  C135     1.0000 0.26851  0.45101  0.42216  Biso   1.000  C 
  C136     1.0000 0.27360  0.49224  0.38107  Biso   1.000  C 
  C137     1.0000 0.36037  0.50759  0.35980  Biso   1.000  C 
  H67      1.0000 0.36360  0.53490  0.33090  Biso   1.000  H 
  H68      1.0000 0.21810  0.50980  0.36770  Biso   1.000  H 
  H69      1.0000 0.49150  0.42410  0.43390  Biso   1.000  H 
  C138     1.0000 0.66743  0.47195  0.38780  Biso   1.000  C 
  C139     1.0000 0.72565  0.44197  0.35183  Biso   1.000  C 
  C140     1.0000 0.80339  0.41314  0.37183  Biso   1.000  C 
  H70      1.0000 0.84200  0.39240  0.34690  Biso   1.000  H 
  C141     1.0000 0.82499  0.41442  0.42793  Biso   1.000  C 
  C142     1.0000 0.91443  0.38970  0.44829  Biso   1.000  C 
  O41      1.0000 0.95371  0.35068  0.42326  Biso   1.000  O 
  O42      1.0000 0.94949  0.41068  0.49336  Biso   1.000  O 
  C143     1.0000 0.76562  0.44287  0.46409  Biso   1.000  C 
  C144     1.0000 0.68713  0.47036  0.44460  Biso   1.000  C 
  H71      1.0000 0.64600  0.48840  0.47010  Biso   1.000  H 
  H72      1.0000 0.77930  0.44340  0.50280  Biso   1.000  H 
  H73      1.0000 0.71200  0.44120  0.31310  Biso   1.000  H 
  C145     1.0000 0.57133  0.52854  0.28064  Biso   1.000  C 
  C146     1.0000 0.52950  0.49096  0.24356  Biso   1.000  C 
  H74      1.0000 0.49850  0.45840  0.25750  Biso   1.000  H 
  C147     1.0000 0.53245  0.50047  0.18707  Biso   1.000  C 
  H75      1.0000 0.50340  0.47440  0.16240  Biso   1.000  H 
  C148     1.0000 0.57683  0.54718  0.16591  Biso   1.000  C 
  C149     1.0000 0.61900  0.58479  0.20242  Biso   1.000  C 
  H76      1.0000 0.64980  0.61740  0.18830  Biso   1.000  H 
  C150     1.0000 0.61660  0.57531  0.25895  Biso   1.000  C 
  H77      1.0000 0.64650  0.60120  0.28340  Biso   1.000  H 
  H78      1.0000 0.42800  0.69090  0.43950  Biso   1.000  H 
  O43      1.0000 0.59146  0.89152  0.41103  Biso   1.000  O 
  C151     1.0000 0.57426  0.94130  0.39536  Biso   1.000  C 
  O44      1.0000 0.55539  0.98190  0.42635  Biso   1.000  O 
  C152     1.0000 0.57683  0.95282  0.33409  Biso   1.000  C 
  C153     1.0000 0.61900  0.91521  0.29758  Biso   1.000  C 
  H79      1.0000 0.64980  0.88260  0.31170  Biso   1.000  H 
  C154     1.0000 0.61660  0.92469  0.24105  Biso   1.000  C 
  H80      1.0000 0.64650  0.89880  0.21660  Biso   1.000  H 
  C155     1.0000 0.57133  0.97146  0.21936  Biso   1.000  C 
  C156     1.0000 0.52950  0.00904  0.25644  Biso   1.000  C 
  H81      1.0000 0.49850  0.04160  0.24250  Biso   1.000  H 
  C157     1.0000 0.53245  0.99953  0.31293  Biso   1.000  C 
  H82      1.0000 0.50340  0.02560  0.33760  Biso   1.000  H 
  O45      1.0000 0.66707  0.88721  0.53334  Biso   1.000  O 
  C158     1.0000 0.67650  0.93742  0.55102  Biso   1.000  C 
  O46      1.0000 0.61773  0.97633  0.54671  Biso   1.000  O 
  C159     1.0000 0.76851  0.95101  0.57784  Biso   1.000  C 
  C160     1.0000 0.77360  0.99224  0.61893  Biso   1.000  C 
  H83      1.0000 0.71810  0.00980  0.63230  Biso   1.000  H 
  C161     1.0000 0.86037  0.00759  0.64020  Biso   1.000  C 
  H84      1.0000 0.86360  0.03490  0.66910  Biso   1.000  H 
  C162     1.0000 0.94279  0.98382  0.61996  Biso   1.000  C 
  C163     1.0000 0.93602  0.94150  0.57978  Biso   1.000  C 
  H85      1.0000 0.99150  0.92410  0.56610  Biso   1.000  H 
  C164     1.0000 0.85037  0.92468  0.55972  Biso   1.000  C 
  H86      1.0000 0.84690  0.89490  0.53330  Biso   1.000  H 
  C165     1.0000 0.30339  0.91314  0.62817  Biso   1.000  C 
  H87      1.0000 0.34200  0.89240  0.65310  Biso   1.000  H 
  C166     1.0000 0.22565  0.94197  0.64817  Biso   1.000  C 
  H88      1.0000 0.21200  0.94120  0.68690  Biso   1.000  H 
  C167     1.0000 0.02950  0.99096  0.75644  Biso   1.000  C 
  C168     1.0000 0.03245  0.00047  0.81293  Biso   1.000  C 
  H89      1.0000 0.00340  0.97440  0.83760  Biso   1.000  H 
  H90      1.0000 0.99850  0.95840  0.74250  Biso   1.000  H 
  H91      1.0000 0.14980  0.11740  0.81170  Biso   1.000  H 
  O47      1.0000 0.10990  0.21340  0.98070  Biso   1.000  O 
  O48      1.0000 0.96940  0.21100  0.94960  Biso   1.000  O 
  C169     1.0000 0.98570  0.32739  0.93120  Biso   1.000  C 
  H92      1.0000 0.92800  0.30910  0.93950  Biso   1.000  H 
  C170     1.0000 0.98430  0.38245  0.91069  Biso   1.000  C 
  H93      1.0000 0.92610  0.40150  0.90630  Biso   1.000  H 
  C171     1.0000 0.16743  0.52805  0.88780  Biso   1.000  C 
  C172     1.0000 0.22565  0.55803  0.85183  Biso   1.000  C 
  H94      1.0000 0.21200  0.55880  0.81310  Biso   1.000  H 
  C173     1.0000 0.30339  0.58686  0.87183  Biso   1.000  C 
  H95      1.0000 0.34200  0.60760  0.84690  Biso   1.000  H 
  C174     1.0000 0.32499  0.58558  0.92793  Biso   1.000  C 
  C175     1.0000 0.26562  0.55713  0.96409  Biso   1.000  C 
  C176     1.0000 0.18713  0.52964  0.94460  Biso   1.000  C 
  H96      1.0000 0.14600  0.51160  0.97010  Biso   1.000  H 
  H97      1.0000 0.27930  0.55660  0.00280  Biso   1.000  H 
  C177     1.0000 0.41443  0.61030  0.94829  Biso   1.000  C 
  O49      1.0000 0.45371  0.64932  0.92326  Biso   1.000  O 
  O50      1.0000 0.44949  0.58932  0.99336  Biso   1.000  O 
  C178     1.0000 0.94279  0.51618  0.88004  Biso   1.000  C 
  C179     1.0000 0.86037  0.49241  0.85980  Biso   1.000  C 
  H98      1.0000 0.86360  0.46510  0.83090  Biso   1.000  H 
  C180     1.0000 0.77360  0.50776  0.88107  Biso   1.000  C 
  H99      1.0000 0.71810  0.49020  0.86770  Biso   1.000  H 
  C181     1.0000 0.76851  0.54899  0.92216  Biso   1.000  C 
  C182     1.0000 0.67650  0.56258  0.94898  Biso   1.000  C 
  O51      1.0000 0.61773  0.52367  0.95329  Biso   1.000  O 
  O52      1.0000 0.66707  0.61279  0.96666  Biso   1.000  O 
  C183     1.0000 0.85037  0.57532  0.94028  Biso   1.000  C 
  H100     1.0000 0.84690  0.60510  0.96670  Biso   1.000  H 
  C184     1.0000 0.93602  0.55850  0.92022  Biso   1.000  C 
  H101     1.0000 0.99150  0.57590  0.93390  Biso   1.000  H 
  O53      1.0000 0.05051  0.58932  0.50664  Biso   1.000  O 
  C185     1.0000 0.08557  0.61030  0.55171  Biso   1.000  C 
  O54      1.0000 0.04629  0.64932  0.57674  Biso   1.000  O 
  C186     1.0000 0.17501  0.58558  0.57207  Biso   1.000  C 
  C187     1.0000 0.23438  0.55713  0.53591  Biso   1.000  C 
  H102     1.0000 0.22070  0.55660  0.49720  Biso   1.000  H 
  C188     1.0000 0.31287  0.52964  0.55540  Biso   1.000  C 
  H103     1.0000 0.35400  0.51160  0.52990  Biso   1.000  H 
  C189     1.0000 0.33257  0.52805  0.61220  Biso   1.000  C 
  C190     1.0000 0.27435  0.55803  0.64817  Biso   1.000  C 
  C191     1.0000 0.19661  0.58686  0.62817  Biso   1.000  C 
  H104     1.0000 0.15800  0.60760  0.65310  Biso   1.000  H 
  H105     1.0000 0.28800  0.55880  0.68690  Biso   1.000  H 
  Ge8      1.0000 0.43676  0.48297  0.63924  Biso   1.000  Ge
  C192     1.0000 0.43410  0.40929  0.60323  Biso   1.000  C 
  C193     1.0000 0.35200  0.38158  0.59109  Biso   1.000  C 
  C194     1.0000 0.35310  0.32746  0.56968  Biso   1.000  C 
  H106     1.0000 0.29520  0.30960  0.56120  Biso   1.000  H 
  C195     1.0000 0.43310  0.29942  0.56046  Biso   1.000  C 
  C196     1.0000 0.46010  0.23680  0.54350  Biso   1.000  C 
  O55      1.0000 0.39010  0.21340  0.51930  Biso   1.000  O 
  O56      1.0000 0.53060  0.21100  0.55040  Biso   1.000  O 
  C197     1.0000 0.51430  0.32739  0.56880  Biso   1.000  C 
  H107     1.0000 0.57200  0.30910  0.56050  Biso   1.000  H 
  C198     1.0000 0.51570  0.38245  0.58931  Biso   1.000  C 
  H108     1.0000 0.57390  0.40150  0.59370  Biso   1.000  H 
  H109     1.0000 0.29360  0.39990  0.59750  Biso   1.000  H 
  C199     1.0000 0.42867  0.47146  0.71936  Biso   1.000  C 
  C200     1.0000 0.38340  0.42469  0.74105  Biso   1.000  C 
  H110     1.0000 0.35350  0.39880  0.71660  Biso   1.000  H 
  C201     1.0000 0.38100  0.41521  0.79758  Biso   1.000  C 
  H111     1.0000 0.35020  0.38260  0.81170  Biso   1.000  H 
  C202     1.0000 0.42317  0.45282  0.83409  Biso   1.000  C 
  C203     1.0000 0.42574  0.44130  0.89536  Biso   1.000  C 
  O57      1.0000 0.44461  0.48190  0.92635  Biso   1.000  O 
  O58      1.0000 0.40854  0.39152  0.91103  Biso   1.000  O 
  C204     1.0000 0.46755  0.49953  0.81293  Biso   1.000  C 
  H112     1.0000 0.49660  0.52560  0.83760  Biso   1.000  H 
  C205     1.0000 0.47050  0.50904  0.75644  Biso   1.000  C 
  H113     1.0000 0.50150  0.54160  0.74250  Biso   1.000  H 
  C206     1.0000 0.55721  0.51618  0.61996  Biso   1.000  C 
  C207     1.0000 0.56398  0.55850  0.57978  Biso   1.000  C 
  H114     1.0000 0.50850  0.57590  0.56610  Biso   1.000  H 
  C208     1.0000 0.64963  0.57532  0.55972  Biso   1.000  C 
  H115     1.0000 0.65310  0.60510  0.53330  Biso   1.000  H 
  C209     1.0000 0.73149  0.54899  0.57784  Biso   1.000  C 
  C210     1.0000 0.82350  0.56258  0.55102  Biso   1.000  C 
  O59      1.0000 0.88227  0.52367  0.54671  Biso   1.000  O 
  O60      1.0000 0.83293  0.61279  0.53334  Biso   1.000  O 
  C211     1.0000 0.72640  0.50776  0.61893  Biso   1.000  C 
  C212     1.0000 0.63963  0.49241  0.64020  Biso   1.000  C 
  H116     1.0000 0.63640  0.46510  0.66910  Biso   1.000  H 
  H117     1.0000 0.78190  0.49020  0.63230  Biso   1.000  H 
  O61      1.0000 0.89010  0.71340  0.48070  Biso   1.000  O 
  C213     1.0000 0.01430  0.82739  0.43120  Biso   1.000  C 
  H118     1.0000 0.07200  0.80910  0.43950  Biso   1.000  H 
  C214     1.0000 0.01570  0.88245  0.41069  Biso   1.000  C 
  H119     1.0000 0.07390  0.90150  0.40630  Biso   1.000  H 
  C215     1.0000 0.05721  0.01618  0.38004  Biso   1.000  C 
  C216     1.0000 0.06398  0.05850  0.42022  Biso   1.000  C 
  H120     1.0000 0.00850  0.07590  0.43390  Biso   1.000  H 
  C217     1.0000 0.14963  0.07532  0.44028  Biso   1.000  C 
  H121     1.0000 0.15310  0.10510  0.46670  Biso   1.000  H 
  C218     1.0000 0.23149  0.04899  0.42216  Biso   1.000  C 
  C219     1.0000 0.22640  0.00776  0.38107  Biso   1.000  C 
  H122     1.0000 0.28190  0.99020  0.36770  Biso   1.000  H 
  C220     1.0000 0.13963  0.99241  0.35980  Biso   1.000  C 
  H123     1.0000 0.13640  0.96510  0.33090  Biso   1.000  H 
  H124     1.0000 0.72070  0.05660  0.50280  Biso   1.000  H 
  O62      1.0000 0.40854  0.10848  0.58897  Biso   1.000  O 
  C221     1.0000 0.46755  0.00047  0.68707  Biso   1.000  C 
  C222     1.0000 0.47050  0.99096  0.74356  Biso   1.000  C 
  H125     1.0000 0.50150  0.95840  0.75750  Biso   1.000  H 
  H126     1.0000 0.49660  0.97440  0.66240  Biso   1.000  H 
  O63      1.0000 0.46940  0.71100  0.05040  Biso   1.000  O 
  O64      1.0000 0.60990  0.71340  0.01930  Biso   1.000  O 
  C223     1.0000 0.64690  0.82746  0.06968  Biso   1.000  C 
  H127     1.0000 0.70480  0.80960  0.06120  Biso   1.000  H 
  C224     1.0000 0.64800  0.88158  0.09109  Biso   1.000  C 
  H128     1.0000 0.70640  0.89990  0.09750  Biso   1.000  H 
