data_image0
_cell_length_a       12.693
_cell_length_b       26.14
_cell_length_c       17.263
_cell_angle_alpha    90
_cell_angle_beta     126.86
_cell_angle_gamma    90

_symmetry_space_group_name_H-M    "P 1"
_symmetry_int_tables_number       1

loop_
  _symmetry_equiv_pos_as_xyz
  'x, y, z'

loop_
  _atom_site_label
  _atom_site_occupancy
  _atom_site_fract_x
  _atom_site_fract_y
  _atom_site_fract_z
  _atom_site_thermal_displace_type
  _atom_site_B_iso_or_equiv
  _atom_site_type_symbol
  C1       1.0000 0.51710  0.32459  0.54339  Biso   1.000  C 
  C2       1.0000 0.47135  0.26945  0.51808  Biso   1.000  C 
  C3       1.0000 0.36076  0.25612  0.42569  Biso   1.000  C 
  C4       1.0000 0.32409  0.20410  0.40060  Biso   1.000  C 
  H1       1.0000 0.24726  0.19623  0.33993  Biso   1.000  H 
  C5       1.0000 0.39997  0.16450  0.46434  Biso   1.000  C 
  C6       1.0000 0.36777  0.10881  0.43722  Biso   1.000  C 
  O1       1.0000 0.46323  0.07779  0.48137  Biso   1.000  O 
  Mg1      1.0000 0.50000  0.00000  0.50000  Biso   1.000  Mg
  O2       1.0000 0.29873  0.98548  0.44667  Biso   1.000  O 
  C7       1.0000 0.22297  0.98938  0.47407  Biso   1.000  C 
  C8       1.0000 0.26294  0.96417  0.56619  Biso   1.000  C 
  C9       1.0000 0.19030  0.97281  0.60326  Biso   1.000  C 
  C10      1.0000 0.23237  0.95181  0.69406  Biso   1.000  C 
  H2       1.0000 0.18611  0.95901  0.71885  Biso   1.000  H 
  C11      1.0000 0.34518  0.91990  0.74612  Biso   1.000  C 
  C12      1.0000 0.41554  0.91084  0.70807  Biso   1.000  C 
  C13      1.0000 0.37283  0.93128  0.61814  Biso   1.000  C 
  H3       1.0000 0.41765  0.92299  0.59264  Biso   1.000  H 
  H4       1.0000 0.49153  0.89101  0.74305  Biso   1.000  H 
  C14      1.0000 0.39007  0.89769  0.84185  Biso   1.000  C 
  C15      1.0000 0.38386  0.92636  0.91006  Biso   1.000  C 
  H5       1.0000 0.35436  0.96003  0.89613  Biso   1.000  H 
  C16      1.0000 0.42112  0.90457  0.99604  Biso   1.000  C 
  C17      1.0000 0.47623  0.85473  0.02265  Biso   1.000  C 
  H6       1.0000 0.50807  0.84164  0.08315  Biso   1.000  H 
  C18      1.0000 0.48290  0.82459  0.95661  Biso   1.000  C 
  C19      1.0000 0.52865  0.76945  0.98192  Biso   1.000  C 
  C20      1.0000 0.45422  0.73046  0.91429  Biso   1.000  C 
  H7       1.0000 0.38346  0.73892  0.85137  Biso   1.000  H 
  C21      1.0000 0.48546  0.67906  0.94063  Biso   1.000  C 
  H8       1.0000 0.43152  0.65376  0.89618  Biso   1.000  H 
  C22      1.0000 0.60003  0.66450  0.03566  Biso   1.000  C 
  C23      1.0000 0.63223  0.60881  0.06278  Biso   1.000  C 
  O3       1.0000 0.53677  0.57779  0.01863  Biso   1.000  O 
  Mg2      1.0000 0.50000  0.50000  0.00000  Biso   1.000  Mg
  O4       1.0000 0.46323  0.42221  0.98137  Biso   1.000  O 
  C24      1.0000 0.36777  0.39119  0.93722  Biso   1.000  C 
  O5       1.0000 0.24774  0.40250  0.87165  Biso   1.000  O 
  Mg3      1.0000 0.15254  0.47235  0.81143  Biso   1.000  Mg
  O6       1.0000 0.99417  0.42649  0.70959  Biso   1.000  O 
  C25      1.0000 0.98290  0.38279  0.67887  Biso   1.000  C 
  N1       1.0000 0.93883  0.34189  0.70804  Biso   1.000  N 
  C26      1.0000 0.91330  0.35171  0.77983  Biso   1.000  C 
  H9       1.0000 0.83494  0.33397  0.76085  Biso   1.000  H 
  H10      1.0000 0.98658  0.33975  0.84227  Biso   1.000  H 
  H11      1.0000 0.90198  0.38777  0.78296  Biso   1.000  H 
  C27      1.0000 0.91740  0.29040  0.66601  Biso   1.000  C 
  H12      1.0000 0.89089  0.26746  0.69484  Biso   1.000  H 
  H13      1.0000 0.99765  0.27829  0.67842  Biso   1.000  H 
  H14      1.0000 0.84974  0.29194  0.59740  Biso   1.000  H 
  C28      1.0000 0.00310  0.37339  0.60317  Biso   1.000  C 
  H15      1.0000 0.92361  0.38132  0.54053  Biso   1.000  H 
  H16      1.0000 0.02545  0.33811  0.60486  Biso   1.000  H 
  H17      1.0000 0.07331  0.39471  0.61551  Biso   1.000  H 
  O7       1.0000 0.11455  0.48607  0.92071  Biso   1.000  O 
  C29      1.0000 0.22297  0.51062  0.97407  Biso   1.000  C 
  O8       1.0000 0.29873  0.51452  0.94667  Biso   1.000  O 
  C30      1.0000 0.26294  0.53583  0.06619  Biso   1.000  C 
  C31      1.0000 0.19030  0.52719  0.10326  Biso   1.000  C 
  H18      1.0000 0.11405  0.50753  0.06778  Biso   1.000  H 
  C32      1.0000 0.23237  0.54819  0.19406  Biso   1.000  C 
  H19      1.0000 0.18611  0.54099  0.21885  Biso   1.000  H 
  C33      1.0000 0.34518  0.58010  0.24612  Biso   1.000  C 
  C34      1.0000 0.41554  0.58916  0.20807  Biso   1.000  C 
  C35      1.0000 0.37283  0.56872  0.11814  Biso   1.000  C 
  H20      1.0000 0.41765  0.57701  0.09264  Biso   1.000  H 
  H21      1.0000 0.49153  0.60899  0.24305  Biso   1.000  H 
  C36      1.0000 0.39007  0.60231  0.34185  Biso   1.000  C 
  C37      1.0000 0.38386  0.57364  0.41006  Biso   1.000  C 
  H22      1.0000 0.35436  0.53997  0.39613  Biso   1.000  H 
  C38      1.0000 0.42112  0.59543  0.49604  Biso   1.000  C 
  C39      1.0000 0.40633  0.56792  0.56663  Biso   1.000  C 
  C40      1.0000 0.50534  0.57003  0.66885  Biso   1.000  C 
  H23      1.0000 0.58500  0.58605  0.69316  Biso   1.000  H 
  C41      1.0000 0.48587  0.54903  0.73201  Biso   1.000  C 
  H24      1.0000 0.55325  0.55070  0.79812  Biso   1.000  H 
  C42      1.0000 0.36558  0.52473  0.69936  Biso   1.000  C 
  C43      1.0000 0.34467  0.50522  0.77129  Biso   1.000  C 
  O9       1.0000 0.23341  0.48520  0.73921  Biso   1.000  O 
  O10      1.0000 0.43910  0.51122  0.86090  Biso   1.000  O 
  C44      1.0000 0.26738  0.52214  0.59811  Biso   1.000  C 
  H25      1.0000 0.18742  0.50647  0.57410  Biso   1.000  H 
  C45      1.0000 0.28770  0.54239  0.53403  Biso   1.000  C 
  H26      1.0000 0.22186  0.53920  0.46786  Biso   1.000  H 
  C46      1.0000 0.47623  0.64527  0.52265  Biso   1.000  C 
  H27      1.0000 0.50807  0.65836  0.58315  Biso   1.000  H 
  C47      1.0000 0.48290  0.67541  0.45661  Biso   1.000  C 
  C48      1.0000 0.43924  0.65321  0.36667  Biso   1.000  C 
  H28      1.0000 0.44293  0.67244  0.32302  Biso   1.000  H 
  C49      1.0000 0.52865  0.73055  0.48192  Biso   1.000  C 
  C50      1.0000 0.45422  0.76954  0.41429  Biso   1.000  C 
  H29      1.0000 0.38346  0.76108  0.35137  Biso   1.000  H 
  C51      1.0000 0.48546  0.82094  0.44063  Biso   1.000  C 
  H30      1.0000 0.43152  0.84624  0.39618  Biso   1.000  H 
  C52      1.0000 0.60003  0.83550  0.53566  Biso   1.000  C 
  C53      1.0000 0.63223  0.89119  0.56278  Biso   1.000  C 
  O11      1.0000 0.53677  0.92221  0.51863  Biso   1.000  O 
  O12      1.0000 0.75226  0.90250  0.62835  Biso   1.000  O 
  Mg4      1.0000 0.84746  0.97235  0.68857  Biso   1.000  Mg
  O13      1.0000 0.88545  0.98607  0.57929  Biso   1.000  O 
  C54      1.0000 0.77703  0.01062  0.52593  Biso   1.000  C 
  O14      1.0000 0.70127  0.01452  0.55333  Biso   1.000  O 
  C55      1.0000 0.73706  0.03583  0.43381  Biso   1.000  C 
  C56      1.0000 0.80970  0.02719  0.39674  Biso   1.000  C 
  C57      1.0000 0.76763  0.04819  0.30594  Biso   1.000  C 
  H31      1.0000 0.81389  0.04099  0.28115  Biso   1.000  H 
  C58      1.0000 0.65482  0.08010  0.25388  Biso   1.000  C 
  C59      1.0000 0.58446  0.08916  0.29193  Biso   1.000  C 
  H32      1.0000 0.50847  0.10899  0.25695  Biso   1.000  H 
  C60      1.0000 0.62717  0.06872  0.38186  Biso   1.000  C 
  H33      1.0000 0.58235  0.07701  0.40736  Biso   1.000  H 
  C61      1.0000 0.60993  0.10231  0.15815  Biso   1.000  C 
  C62      1.0000 0.61614  0.07364  0.08994  Biso   1.000  C 
  C63      1.0000 0.57888  0.09543  0.00396  Biso   1.000  C 
  C64      1.0000 0.59367  0.06792  0.93337  Biso   1.000  C 
  C65      1.0000 0.71230  0.04239  0.96597  Biso   1.000  C 
  C66      1.0000 0.73262  0.02214  0.90189  Biso   1.000  C 
  C67      1.0000 0.63442  0.02473  0.80064  Biso   1.000  C 
  C68      1.0000 0.65533  0.00522  0.72871  Biso   1.000  C 
  O15      1.0000 0.56090  0.01122  0.63910  Biso   1.000  O 
  O16      1.0000 0.76659  0.98520  0.76079  Biso   1.000  O 
  C69      1.0000 0.51413  0.04903  0.76799  Biso   1.000  C 
  H34      1.0000 0.44675  0.05070  0.70188  Biso   1.000  H 
  C70      1.0000 0.49466  0.07003  0.83115  Biso   1.000  C 
  H35      1.0000 0.41500  0.08605  0.80684  Biso   1.000  H 
  H36      1.0000 0.81258  0.00647  0.92590  Biso   1.000  H 
  H37      1.0000 0.77814  0.03920  0.03214  Biso   1.000  H 
  C71      1.0000 0.52377  0.14527  0.97735  Biso   1.000  C 
  H38      1.0000 0.49193  0.15836  0.91685  Biso   1.000  H 
  C72      1.0000 0.51710  0.17541  0.04339  Biso   1.000  C 
  C73      1.0000 0.56076  0.15321  0.13333  Biso   1.000  C 
  H39      1.0000 0.55707  0.17244  0.17698  Biso   1.000  H 
  C74      1.0000 0.47135  0.23055  0.01808  Biso   1.000  C 
  C75      1.0000 0.54578  0.26954  0.08571  Biso   1.000  C 
  H40      1.0000 0.61654  0.26108  0.14863  Biso   1.000  H 
  C76      1.0000 0.51454  0.32094  0.05937  Biso   1.000  C 
  H41      1.0000 0.56848  0.34624  0.10382  Biso   1.000  H 
  C77      1.0000 0.39997  0.33550  0.96434  Biso   1.000  C 
  C78      1.0000 0.32409  0.29590  0.90060  Biso   1.000  C 
  H42      1.0000 0.24726  0.30377  0.83993  Biso   1.000  H 
  C79      1.0000 0.36076  0.24388  0.92569  Biso   1.000  C 
  H43      1.0000 0.31070  0.21842  0.88020  Biso   1.000  H 
  H44      1.0000 0.64564  0.03997  0.10387  Biso   1.000  H 
  H45      1.0000 0.88595  0.00753  0.43222  Biso   1.000  H 
  O17      1.0000 0.00583  0.92649  0.79041  Biso   1.000  O 
  C80      1.0000 0.01710  0.88279  0.82113  Biso   1.000  C 
  N2       1.0000 0.06117  0.84189  0.79196  Biso   1.000  N 
  C81      1.0000 0.08670  0.85171  0.72017  Biso   1.000  C 
  H46      1.0000 0.01342  0.83975  0.65773  Biso   1.000  H 
  H47      1.0000 0.16506  0.83397  0.73915  Biso   1.000  H 
  H48      1.0000 0.09802  0.88777  0.71704  Biso   1.000  H 
  C82      1.0000 0.08260  0.79040  0.83399  Biso   1.000  C 
  H49      1.0000 0.10911  0.76746  0.80516  Biso   1.000  H 
  H50      1.0000 0.00235  0.77829  0.82158  Biso   1.000  H 
  H51      1.0000 0.15026  0.79193  0.90260  Biso   1.000  H 
  C83      1.0000 0.99690  0.87339  0.89683  Biso   1.000  C 
  H52      1.0000 0.92669  0.89471  0.88449  Biso   1.000  H 
  H53      1.0000 0.07639  0.88132  0.95947  Biso   1.000  H 
  H54      1.0000 0.97455  0.83811  0.89513  Biso   1.000  H 
  O18      1.0000 0.97359  0.03499  0.76213  Biso   1.000  O 
  C84      1.0000 0.96937  0.08223  0.77969  Biso   1.000  C 
  N3       1.0000 0.08776  0.10593  0.85864  Biso   1.000  N 
  C85      1.0000 0.21132  0.07528  0.91470  Biso   1.000  C 
  H55      1.0000 0.23273  0.06442  0.87254  Biso   1.000  H 
  H56      1.0000 0.19915  0.04584  0.94178  Biso   1.000  H 
  H57      1.0000 0.28176  0.09584  0.96592  Biso   1.000  H 
  C86      1.0000 0.08870  0.16072  0.88103  Biso   1.000  C 
  H58      1.0000 0.17024  0.17598  0.90085  Biso   1.000  H 
  H59      1.0000 0.07996  0.16377  0.93233  Biso   1.000  H 
  H60      1.0000 0.01667  0.17792  0.82441  Biso   1.000  H 
  C87      1.0000 0.83880  0.10857  0.72734  Biso   1.000  C 
  H61      1.0000 0.77706  0.09195  0.66634  Biso   1.000  H 
  H62      1.0000 0.80712  0.10695  0.76572  Biso   1.000  H 
  H63      1.0000 0.84838  0.14370  0.71639  Biso   1.000  H 
  C88      1.0000 0.67591  0.79590  0.59940  Biso   1.000  C 
  H64      1.0000 0.75274  0.80377  0.66007  Biso   1.000  H 
  C89      1.0000 0.63924  0.74388  0.57431  Biso   1.000  C 
  H65      1.0000 0.68930  0.71842  0.61980  Biso   1.000  H 
  O19      1.0000 0.02641  0.53499  0.73787  Biso   1.000  O 
  C90      1.0000 0.03063  0.58223  0.72031  Biso   1.000  C 
  N4       1.0000 0.91224  0.60593  0.64136  Biso   1.000  N 
  C91      1.0000 0.78868  0.57528  0.58530  Biso   1.000  C 
  H66      1.0000 0.71824  0.59584  0.53408  Biso   1.000  H 
  H67      1.0000 0.76727  0.56442  0.62746  Biso   1.000  H 
  H68      1.0000 0.80085  0.54584  0.55822  Biso   1.000  H 
  C92      1.0000 0.91130  0.66072  0.61897  Biso   1.000  C 
  H69      1.0000 0.92004  0.66377  0.56767  Biso   1.000  H 
  H70      1.0000 0.82976  0.67598  0.59915  Biso   1.000  H 
  H71      1.0000 0.98333  0.67792  0.67559  Biso   1.000  H 
  C93      1.0000 0.16120  0.60857  0.77266  Biso   1.000  C 
  H72      1.0000 0.15162  0.64370  0.78361  Biso   1.000  H 
  H73      1.0000 0.22294  0.59195  0.83366  Biso   1.000  H 
  H74      1.0000 0.19288  0.60696  0.73428  Biso   1.000  H 
  O20      1.0000 0.70127  0.48548  0.05333  Biso   1.000  O 
  C94      1.0000 0.77703  0.48938  0.02593  Biso   1.000  C 
  O21      1.0000 0.88545  0.51393  0.07929  Biso   1.000  O 
  Mg5      1.0000 0.84746  0.52765  0.18857  Biso   1.000  Mg
  O22      1.0000 0.97359  0.46501  0.26213  Biso   1.000  O 
  C95      1.0000 0.96937  0.41777  0.27969  Biso   1.000  C 
  N5       1.0000 0.08776  0.39407  0.35864  Biso   1.000  N 
  C96      1.0000 0.21132  0.42472  0.41470  Biso   1.000  C 
  H75      1.0000 0.28176  0.40416  0.46592  Biso   1.000  H 
  H76      1.0000 0.19915  0.45416  0.44178  Biso   1.000  H 
  H77      1.0000 0.23273  0.43558  0.37254  Biso   1.000  H 
  C97      1.0000 0.08870  0.33928  0.38103  Biso   1.000  C 
  H78      1.0000 0.01667  0.32208  0.32441  Biso   1.000  H 
  H79      1.0000 0.17024  0.32402  0.40085  Biso   1.000  H 
  H80      1.0000 0.07996  0.33623  0.43233  Biso   1.000  H 
  C98      1.0000 0.83880  0.39143  0.22734  Biso   1.000  C 
  H81      1.0000 0.80712  0.39304  0.26572  Biso   1.000  H 
  H82      1.0000 0.77706  0.40804  0.16634  Biso   1.000  H 
  H83      1.0000 0.84838  0.35629  0.21639  Biso   1.000  H 
  O23      1.0000 0.76659  0.51480  0.26079  Biso   1.000  O 
  C99      1.0000 0.65533  0.49478  0.22871  Biso   1.000  C 
  O24      1.0000 0.56090  0.48878  0.13910  Biso   1.000  O 
  C100     1.0000 0.63442  0.47527  0.30064  Biso   1.000  C 
  C101     1.0000 0.51413  0.45097  0.26799  Biso   1.000  C 
  C102     1.0000 0.49466  0.42997  0.33115  Biso   1.000  C 
  H84      1.0000 0.41500  0.41395  0.30684  Biso   1.000  H 
  C103     1.0000 0.59367  0.43208  0.43337  Biso   1.000  C 
  C104     1.0000 0.71230  0.45761  0.46597  Biso   1.000  C 
  C105     1.0000 0.73262  0.47786  0.40189  Biso   1.000  C 
  H85      1.0000 0.81258  0.49353  0.42590  Biso   1.000  H 
  H86      1.0000 0.77814  0.46080  0.53214  Biso   1.000  H 
  C106     1.0000 0.57888  0.40457  0.50396  Biso   1.000  C 
  C107     1.0000 0.52377  0.35473  0.47735  Biso   1.000  C 
  H87      1.0000 0.49193  0.34164  0.41685  Biso   1.000  H 
  C108     1.0000 0.61614  0.42636  0.58994  Biso   1.000  C 
  H88      1.0000 0.64564  0.46003  0.60387  Biso   1.000  H 
  C109     1.0000 0.60993  0.39769  0.65815  Biso   1.000  C 
  C110     1.0000 0.65482  0.41990  0.75388  Biso   1.000  C 
  C111     1.0000 0.58446  0.41084  0.79193  Biso   1.000  C 
  C112     1.0000 0.62717  0.43128  0.88186  Biso   1.000  C 
  H89      1.0000 0.58235  0.42299  0.90736  Biso   1.000  H 
  C113     1.0000 0.73706  0.46417  0.93381  Biso   1.000  C 
  C114     1.0000 0.80970  0.47281  0.89674  Biso   1.000  C 
  C115     1.0000 0.76763  0.45181  0.80594  Biso   1.000  C 
  H90      1.0000 0.81389  0.45901  0.78115  Biso   1.000  H 
  H91      1.0000 0.88595  0.49247  0.93222  Biso   1.000  H 
  H92      1.0000 0.50847  0.39101  0.75695  Biso   1.000  H 
  C116     1.0000 0.56076  0.34679  0.63333  Biso   1.000  C 
  H93      1.0000 0.55707  0.32756  0.67698  Biso   1.000  H 
  H94      1.0000 0.44675  0.44930  0.20188  Biso   1.000  H 
  O25      1.0000 0.75226  0.59750  0.12835  Biso   1.000  O 
  O26      1.0000 0.00583  0.57351  0.29041  Biso   1.000  O 
  C117     1.0000 0.01710  0.61721  0.32113  Biso   1.000  C 
  N6       1.0000 0.06117  0.65811  0.29196  Biso   1.000  N 
  C118     1.0000 0.08670  0.64829  0.22017  Biso   1.000  C 
  H95      1.0000 0.16506  0.66603  0.23915  Biso   1.000  H 
  H96      1.0000 0.01342  0.66025  0.15773  Biso   1.000  H 
  H97      1.0000 0.09802  0.61223  0.21704  Biso   1.000  H 
  C119     1.0000 0.08260  0.70960  0.33399  Biso   1.000  C 
  H98      1.0000 0.15026  0.70806  0.40260  Biso   1.000  H 
  H99      1.0000 0.00235  0.72171  0.32158  Biso   1.000  H 
  H100     1.0000 0.10911  0.73254  0.30516  Biso   1.000  H 
  C120     1.0000 0.99690  0.62661  0.39683  Biso   1.000  C 
  H101     1.0000 0.92669  0.60529  0.38449  Biso   1.000  H 
  H102     1.0000 0.97455  0.66189  0.39514  Biso   1.000  H 
  H103     1.0000 0.07639  0.61868  0.45947  Biso   1.000  H 
  C121     1.0000 0.67591  0.70410  0.09940  Biso   1.000  C 
  H104     1.0000 0.75274  0.69623  0.16007  Biso   1.000  H 
  C122     1.0000 0.63924  0.75612  0.07431  Biso   1.000  C 
  H105     1.0000 0.68930  0.78158  0.11980  Biso   1.000  H 
  C123     1.0000 0.43924  0.84679  0.86667  Biso   1.000  C 
  H106     1.0000 0.44293  0.82756  0.82302  Biso   1.000  H 
  C124     1.0000 0.40633  0.93208  0.06663  Biso   1.000  C 
  C125     1.0000 0.50534  0.92997  0.16885  Biso   1.000  C 
  H107     1.0000 0.58500  0.91395  0.19316  Biso   1.000  H 
  C126     1.0000 0.48587  0.95097  0.23201  Biso   1.000  C 
  H108     1.0000 0.55325  0.94930  0.29812  Biso   1.000  H 
  C127     1.0000 0.36558  0.97527  0.19936  Biso   1.000  C 
  C128     1.0000 0.34467  0.99478  0.27129  Biso   1.000  C 
  O27      1.0000 0.43910  0.98878  0.36090  Biso   1.000  O 
  O28      1.0000 0.23341  0.01480  0.23921  Biso   1.000  O 
  Mg6      1.0000 0.15254  0.02765  0.31143  Biso   1.000  Mg
  O29      1.0000 0.99417  0.07351  0.20959  Biso   1.000  O 
  C129     1.0000 0.98290  0.11721  0.17887  Biso   1.000  C 
  N7       1.0000 0.93883  0.15811  0.20804  Biso   1.000  N 
  C130     1.0000 0.91330  0.14829  0.27983  Biso   1.000  C 
  H109     1.0000 0.83494  0.16603  0.26085  Biso   1.000  H 
  H110     1.0000 0.90198  0.11223  0.28296  Biso   1.000  H 
  H111     1.0000 0.98658  0.16025  0.34227  Biso   1.000  H 
  C131     1.0000 0.91740  0.20960  0.16601  Biso   1.000  C 
  H112     1.0000 0.84974  0.20806  0.09740  Biso   1.000  H 
  H113     1.0000 0.99765  0.22171  0.17842  Biso   1.000  H 
  H114     1.0000 0.89089  0.23254  0.19484  Biso   1.000  H 
  C132     1.0000 0.00310  0.12661  0.10317  Biso   1.000  C 
  H115     1.0000 0.02545  0.16189  0.10486  Biso   1.000  H 
  H116     1.0000 0.07331  0.10529  0.11551  Biso   1.000  H 
  H117     1.0000 0.92361  0.11868  0.04053  Biso   1.000  H 
  O30      1.0000 0.11455  0.01393  0.42071  Biso   1.000  O 
  O31      1.0000 0.24774  0.09750  0.37165  Biso   1.000  O 
  O32      1.0000 0.02641  0.96501  0.23787  Biso   1.000  O 
  C133     1.0000 0.03063  0.91777  0.22031  Biso   1.000  C 
  N8       1.0000 0.91224  0.89407  0.14136  Biso   1.000  N 
  C134     1.0000 0.78868  0.92472  0.08530  Biso   1.000  C 
  H118     1.0000 0.71824  0.90416  0.03408  Biso   1.000  H 
  H119     1.0000 0.76727  0.93558  0.12746  Biso   1.000  H 
  H120     1.0000 0.80085  0.95416  0.05822  Biso   1.000  H 
  C135     1.0000 0.91130  0.83928  0.11897  Biso   1.000  C 
  H121     1.0000 0.98333  0.82208  0.17559  Biso   1.000  H 
  H122     1.0000 0.82976  0.82402  0.09915  Biso   1.000  H 
  H123     1.0000 0.92004  0.83623  0.06767  Biso   1.000  H 
  C136     1.0000 0.16120  0.89143  0.27266  Biso   1.000  C 
  H124     1.0000 0.19288  0.89304  0.23428  Biso   1.000  H 
  H125     1.0000 0.15162  0.85629  0.28361  Biso   1.000  H 
  H126     1.0000 0.22294  0.90804  0.33366  Biso   1.000  H 
  C137     1.0000 0.26738  0.97786  0.09811  Biso   1.000  C 
  H127     1.0000 0.18742  0.99353  0.07410  Biso   1.000  H 
  C138     1.0000 0.28770  0.95761  0.03403  Biso   1.000  C 
  H128     1.0000 0.22186  0.96080  0.96786  Biso   1.000  H 
  H129     1.0000 0.11405  0.99247  0.56778  Biso   1.000  H 
  C139     1.0000 0.51454  0.17906  0.55937  Biso   1.000  C 
  H130     1.0000 0.56848  0.15376  0.60382  Biso   1.000  H 
  C140     1.0000 0.54578  0.23046  0.58571  Biso   1.000  C 
  H131     1.0000 0.61654  0.23892  0.64863  Biso   1.000  H 
  H132     1.0000 0.31070  0.28158  0.38020  Biso   1.000  H 
