data_image0
_cell_length_a       28.7134
_cell_length_b       13.6276
_cell_length_c       32.8962
_cell_angle_alpha    90
_cell_angle_beta     95.756
_cell_angle_gamma    90

_symmetry_space_group_name_H-M    "P 1"
_symmetry_int_tables_number       1

loop_
  _symmetry_equiv_pos_as_xyz
  'x, y, z'

loop_
  _atom_site_label
  _atom_site_occupancy
  _atom_site_fract_x
  _atom_site_fract_y
  _atom_site_fract_z
  _atom_site_thermal_displace_type
  _atom_site_B_iso_or_equiv
  _atom_site_type_symbol
  C1       1.0000 0.89180  0.82170  0.15450  Biso   1.000  C 
  Se1      1.0000 0.82917  0.83478  0.12782  Biso   1.000  Se
  Cd1      1.0000 0.76958  0.77210  0.17780  Biso   1.000  Cd
  Se2      1.0000 0.74405  0.85802  0.24399  Biso   1.000  Se
  C2       1.0000 0.80190  0.86450  0.27700  Biso   1.000  C 
  C3       1.0000 0.80110  0.86080  0.31920  Biso   1.000  C 
  H1       1.0000 0.77270  0.85900  0.33040  Biso   1.000  H 
  C4       1.0000 0.84290  0.85990  0.34455  Biso   1.000  C 
  C5       1.0000 0.88540  0.86270  0.32780  Biso   1.000  C 
  C6       1.0000 0.88620  0.86640  0.28560  Biso   1.000  C 
  H2       1.0000 0.91470  0.86820  0.27440  Biso   1.000  H 
  C7       1.0000 0.84450  0.86730  0.26025  Biso   1.000  C 
  H3       1.0000 0.84500  0.86970  0.23200  Biso   1.000  H 
  H4       1.0000 0.91330  0.86210  0.34480  Biso   1.000  H 
  H5       1.0000 0.84230  0.85750  0.37270  Biso   1.000  H 
  Cd2      1.0000 0.73115  0.04175  0.22294  Biso   1.000  Cd
  Se3      1.0000 0.79411  0.13475  0.18462  Biso   1.000  Se
  Cd3      1.0000 0.81034  0.02584  0.12111  Biso   1.000  Cd
  Se4      1.0000 0.73956  0.99015  0.06505  Biso   1.000  Se
  Cd4      1.0000 0.67182  0.94539  0.10913  Biso   1.000  Cd
  P1       1.0000 0.59437  0.95500  0.06090  Biso   1.000  P 
  C8       1.0000 0.60590  0.94240  0.00778  Biso   1.000  C 
  C9       1.0000 0.63150  0.86110  0.99740  Biso   1.000  C 
  C10      1.0000 0.64180  0.84830  0.95740  Biso   1.000  C 
  C11      1.0000 0.62660  0.91690  0.92769  Biso   1.000  C 
  H6       1.0000 0.63350  0.90840  0.90090  Biso   1.000  H 
  C12      1.0000 0.60100  0.99820  0.93800  Biso   1.000  C 
  H7       1.0000 0.59090  0.04410  0.91820  Biso   1.000  H 
  C13      1.0000 0.59070  0.01100  0.97810  Biso   1.000  C 
  H8       1.0000 0.57360  0.06540  0.98500  Biso   1.000  H 
  H9       1.0000 0.65890  0.79390  0.95040  Biso   1.000  H 
  H10      1.0000 0.64160  0.81520  0.01730  Biso   1.000  H 
  C14      1.0000 0.56530  0.07020  0.06630  Biso   1.000  C 
  C15      1.0000 0.59170  0.15490  0.06330  Biso   1.000  C 
  C16      1.0000 0.57130  0.24640  0.06740  Biso   1.000  C 
  H11      1.0000 0.58890  0.30310  0.06540  Biso   1.000  H 
  C17      1.0000 0.52440  0.25320  0.07440  Biso   1.000  C 
  H12      1.0000 0.51070  0.31440  0.07700  Biso   1.000  H 
  C18      1.0000 0.49800  0.16850  0.07730  Biso   1.000  C 
  H13      1.0000 0.46670  0.17300  0.08200  Biso   1.000  H 
  C19      1.0000 0.51840  0.07700  0.07330  Biso   1.000  C 
  H14      1.0000 0.50080  0.02030  0.07530  Biso   1.000  H 
  H15      1.0000 0.62300  0.15040  0.05870  Biso   1.000  H 
  C20      1.0000 0.55190  0.86220  0.06970  Biso   1.000  C 
  C21      1.0000 0.52170  0.82280  0.03820  Biso   1.000  C 
  C22      1.0000 0.48780  0.75520  0.04690  Biso   1.000  C 
  H16      1.0000 0.46760  0.72890  0.02590  Biso   1.000  H 
  C23      1.0000 0.48410  0.72700  0.08710  Biso   1.000  C 
  H17      1.0000 0.46150  0.68180  0.09290  Biso   1.000  H 
  C24      1.0000 0.51430  0.76640  0.11860  Biso   1.000  C 
  H18      1.0000 0.51190  0.74750  0.14540  Biso   1.000  H 
  C25      1.0000 0.54820  0.83400  0.10990  Biso   1.000  C 
  H19      1.0000 0.56840  0.86030  0.13090  Biso   1.000  H 
  H20      1.0000 0.52420  0.84160  0.01140  Biso   1.000  H 
  Se5      1.0000 0.66205  0.07862  0.16497  Biso   1.000  Se
  C26      1.0000 0.60760  0.02030  0.18510  Biso   1.000  C 
  C27      1.0000 0.56470  0.06470  0.17380  Biso   1.000  C 
  H21      1.0000 0.56330  0.12260  0.15880  Biso   1.000  H 
  C28      1.0000 0.52380  0.02260  0.18510  Biso   1.000  C 
  H22      1.0000 0.49510  0.05230  0.17760  Biso   1.000  H 
  C29      1.0000 0.52580  0.93600  0.20760  Biso   1.000  C 
  H23      1.0000 0.49850  0.90790  0.21510  Biso   1.000  H 
  C30      1.0000 0.56880  0.89160  0.21880  Biso   1.000  C 
  C31      1.0000 0.60970  0.93370  0.20750  Biso   1.000  C 
  H24      1.0000 0.63840  0.90400  0.21510  Biso   1.000  H 
  H25      1.0000 0.57020  0.83370  0.23380  Biso   1.000  H 
  Se6      1.0000 0.68324  0.76723  0.13970  Biso   1.000  Se
  C32      1.0000 0.68510  0.69390  0.08970  Biso   1.000  C 
  C33      1.0000 0.64630  0.63620  0.07760  Biso   1.000  C 
  C34      1.0000 0.64450  0.58340  0.04130  Biso   1.000  C 
  H26      1.0000 0.61850  0.54480  0.03310  Biso   1.000  H 
  C35      1.0000 0.68150  0.58830  0.01720  Biso   1.000  C 
  C36      1.0000 0.72040  0.64600  0.02940  Biso   1.000  C 
  C37      1.0000 0.72220  0.69880  0.06560  Biso   1.000  C 
  H27      1.0000 0.74810  0.73740  0.07380  Biso   1.000  H 
  H28      1.0000 0.74510  0.64920  0.01330  Biso   1.000  H 
  H29      1.0000 0.68030  0.55290  0.99290  Biso   1.000  H 
  H30      1.0000 0.62150  0.63300  0.09370  Biso   1.000  H 
  C38      1.0000 0.71770  0.11710  0.04640  Biso   1.000  C 
  C39      1.0000 0.69840  0.12370  0.00610  Biso   1.000  C 
  C40      1.0000 0.68130  0.21290  0.99053  Biso   1.000  C 
  H31      1.0000 0.66830  0.21730  0.96350  Biso   1.000  H 
  C41      1.0000 0.68350  0.29570  0.01540  Biso   1.000  C 
  H32      1.0000 0.67210  0.35540  0.00500  Biso   1.000  H 
  C42      1.0000 0.70280  0.28910  0.05570  Biso   1.000  C 
  H33      1.0000 0.70430  0.34450  0.07240  Biso   1.000  H 
  C43      1.0000 0.71990  0.19980  0.07130  Biso   1.000  C 
  H34      1.0000 0.73280  0.19540  0.09830  Biso   1.000  H 
  H35      1.0000 0.69690  0.06830  0.98940  Biso   1.000  H 
  Cl1      1.0000 0.87226  0.10840  0.08668  Biso   1.000  Cl
  C44      1.0000 0.85120  0.12300  0.22070  Biso   1.000  C 
  C45      1.0000 0.89370  0.10620  0.20500  Biso   1.000  C 
  H36      1.0000 0.89470  0.09900  0.17700  Biso   1.000  H 
  C46      1.0000 0.93470  0.10030  0.23130  Biso   1.000  C 
  H37      1.0000 0.96320  0.08910  0.22080  Biso   1.000  H 
  C47      1.0000 0.93320  0.11110  0.27310  Biso   1.000  C 
  C48      1.0000 0.89070  0.12790  0.28880  Biso   1.000  C 
  C49      1.0000 0.84970  0.13380  0.26250  Biso   1.000  C 
  H38      1.0000 0.82130  0.14500  0.27300  Biso   1.000  H 
  H39      1.0000 0.88970  0.13510  0.31680  Biso   1.000  H 
  H40      1.0000 0.96060  0.10720  0.29070  Biso   1.000  H 
  Se7      1.0000 0.68881  0.12124  0.28318  Biso   1.000  Se
  Cd5      1.0000 0.73042  0.27210  0.32220  Biso   1.000  Cd
  Se8      1.0000 0.67083  0.33478  0.37218  Biso   1.000  Se
  Cd6      1.0000 0.68966  0.52584  0.37889  Biso   1.000  Cd
  Cl2      1.0000 0.62774  0.60840  0.41332  Biso   1.000  Cl
  Se9      1.0000 0.70589  0.63475  0.31538  Biso   1.000  Se
  Cd7      1.0000 0.76885  0.54175  0.27706  Biso   1.000  Cd
  Se10     1.0000 0.75595  0.35802  0.25601  Biso   1.000  Se
  C50      1.0000 0.69810  0.36450  0.22300  Biso   1.000  C 
  C51      1.0000 0.69890  0.36080  0.18080  Biso   1.000  C 
  C52      1.0000 0.65710  0.35990  0.15545  Biso   1.000  C 
  H41      1.0000 0.65770  0.35750  0.12730  Biso   1.000  H 
  C53      1.0000 0.61460  0.36270  0.17220  Biso   1.000  C 
  H42      1.0000 0.58670  0.36210  0.15520  Biso   1.000  H 
  C54      1.0000 0.61380  0.36640  0.21440  Biso   1.000  C 
  H43      1.0000 0.58530  0.36820  0.22560  Biso   1.000  H 
  C55      1.0000 0.65550  0.36730  0.23975  Biso   1.000  C 
  H44      1.0000 0.65500  0.36970  0.26800  Biso   1.000  H 
  H45      1.0000 0.72730  0.35900  0.16960  Biso   1.000  H 
  Se11     1.0000 0.83795  0.57862  0.33503  Biso   1.000  Se
  Cd8      1.0000 0.82818  0.44539  0.39087  Biso   1.000  Cd
  P2       1.0000 0.90563  0.45500  0.43910  Biso   1.000  P 
  C56      1.0000 0.89410  0.44240  0.49222  Biso   1.000  C 
  C57      1.0000 0.86850  0.36110  0.50260  Biso   1.000  C 
  H46      1.0000 0.85840  0.31520  0.48270  Biso   1.000  H 
  C58      1.0000 0.85820  0.34830  0.54260  Biso   1.000  C 
  H47      1.0000 0.84110  0.29390  0.54960  Biso   1.000  H 
  C59      1.0000 0.87340  0.41690  0.57231  Biso   1.000  C 
  H48      1.0000 0.86650  0.40840  0.59910  Biso   1.000  H 
  C60      1.0000 0.89900  0.49820  0.56200  Biso   1.000  C 
  C61      1.0000 0.90930  0.51100  0.52190  Biso   1.000  C 
  H49      1.0000 0.92640  0.56540  0.51500  Biso   1.000  H 
  H50      1.0000 0.90910  0.54410  0.58180  Biso   1.000  H 
  C62      1.0000 0.93470  0.57020  0.43370  Biso   1.000  C 
  C63      1.0000 0.90830  0.65490  0.43670  Biso   1.000  C 
  C64      1.0000 0.92870  0.74640  0.43260  Biso   1.000  C 
  H51      1.0000 0.91110  0.80310  0.43460  Biso   1.000  H 
  C65      1.0000 0.97560  0.75320  0.42560  Biso   1.000  C 
  H52      1.0000 0.98930  0.81440  0.42300  Biso   1.000  H 
  C66      1.0000 0.00200  0.66850  0.42270  Biso   1.000  C 
  H53      1.0000 0.03330  0.67300  0.41800  Biso   1.000  H 
  C67      1.0000 0.98160  0.57700  0.42670  Biso   1.000  C 
  H54      1.0000 0.99920  0.52030  0.42470  Biso   1.000  H 
  H55      1.0000 0.87700  0.65040  0.44130  Biso   1.000  H 
  C68      1.0000 0.94810  0.36220  0.43030  Biso   1.000  C 
  C69      1.0000 0.95180  0.33400  0.39010  Biso   1.000  C 
  H56      1.0000 0.93160  0.36030  0.36910  Biso   1.000  H 
  C70      1.0000 0.98570  0.26640  0.38140  Biso   1.000  C 
  H57      1.0000 0.98810  0.24750  0.35460  Biso   1.000  H 
  C71      1.0000 0.01590  0.22700  0.41290  Biso   1.000  C 
  H58      1.0000 0.03850  0.18180  0.40710  Biso   1.000  H 
  C72      1.0000 0.01220  0.25520  0.45310  Biso   1.000  C 
  H59      1.0000 0.03240  0.22890  0.47410  Biso   1.000  H 
  C73      1.0000 0.97830  0.32280  0.46180  Biso   1.000  C 
  H60      1.0000 0.97580  0.34160  0.48860  Biso   1.000  H 
  Se12     1.0000 0.76044  0.49015  0.43495  Biso   1.000  Se
  C74      1.0000 0.78230  0.61710  0.45360  Biso   1.000  C 
  C75      1.0000 0.78010  0.69980  0.42870  Biso   1.000  C 
  H61      1.0000 0.76720  0.69540  0.40170  Biso   1.000  H 
  C76      1.0000 0.79720  0.78910  0.44430  Biso   1.000  C 
  C77      1.0000 0.81650  0.79570  0.48460  Biso   1.000  C 
  H62      1.0000 0.82790  0.85540  0.49500  Biso   1.000  H 
  C78      1.0000 0.81870  0.71290  0.50947  Biso   1.000  C 
  C79      1.0000 0.80160  0.62370  0.49390  Biso   1.000  C 
  H63      1.0000 0.80310  0.56830  0.51060  Biso   1.000  H 
  H64      1.0000 0.83170  0.71730  0.53650  Biso   1.000  H 
  H65      1.0000 0.79570  0.84450  0.42760  Biso   1.000  H 
  Se13     1.0000 0.81676  0.26723  0.36030  Biso   1.000  Se
  C80      1.0000 0.81490  0.19390  0.41030  Biso   1.000  C 
  C81      1.0000 0.77780  0.19880  0.43440  Biso   1.000  C 
  H66      1.0000 0.75190  0.23740  0.42620  Biso   1.000  H 
  C82      1.0000 0.77960  0.14600  0.47060  Biso   1.000  C 
  H67      1.0000 0.75490  0.14920  0.48670  Biso   1.000  H 
  C83      1.0000 0.81850  0.08830  0.48280  Biso   1.000  C 
  H68      1.0000 0.81970  0.05290  0.50710  Biso   1.000  H 
  C84      1.0000 0.85550  0.08340  0.45870  Biso   1.000  C 
  H69      1.0000 0.88150  0.04480  0.46690  Biso   1.000  H 
  C85      1.0000 0.85370  0.13620  0.42240  Biso   1.000  C 
  H70      1.0000 0.87850  0.13300  0.40630  Biso   1.000  H 
  C86      1.0000 0.89240  0.52030  0.31490  Biso   1.000  C 
  C87      1.0000 0.89030  0.43370  0.29250  Biso   1.000  C 
  H71      1.0000 0.86160  0.40400  0.28490  Biso   1.000  H 
  C88      1.0000 0.93120  0.39160  0.28120  Biso   1.000  C 
  H72      1.0000 0.92980  0.33370  0.26620  Biso   1.000  H 
  C89      1.0000 0.97420  0.43600  0.29240  Biso   1.000  C 
  C90      1.0000 0.97620  0.52260  0.31490  Biso   1.000  C 
  C91      1.0000 0.93530  0.56470  0.32620  Biso   1.000  C 
  H73      1.0000 0.93670  0.62260  0.34120  Biso   1.000  H 
  H74      1.0000 0.00490  0.55230  0.32240  Biso   1.000  H 
  H75      1.0000 0.00150  0.40790  0.28490  Biso   1.000  H 
  Se14     1.0000 0.81119  0.62124  0.21682  Biso   1.000  Se
  C92      1.0000 0.81300  0.51930  0.17750  Biso   1.000  C 
  C93      1.0000 0.84710  0.44690  0.18360  Biso   1.000  C 
  H76      1.0000 0.86800  0.44750  0.20710  Biso   1.000  H 
  C94      1.0000 0.85000  0.37370  0.15460  Biso   1.000  C 
  H77      1.0000 0.87280  0.32530  0.15870  Biso   1.000  H 
  C95      1.0000 0.81880  0.37280  0.11940  Biso   1.000  C 
  H78      1.0000 0.82080  0.32380  0.10000  Biso   1.000  H 
  C96      1.0000 0.78470  0.44510  0.11330  Biso   1.000  C 
  H79      1.0000 0.76380  0.44450  0.08980  Biso   1.000  H 
  C97      1.0000 0.78180  0.51840  0.14240  Biso   1.000  C 
  H80      1.0000 0.75506  0.57505  0.13764  Biso   1.000  H 
  C98      1.0000 0.64880  0.62300  0.27930  Biso   1.000  C 
  C99      1.0000 0.60630  0.60620  0.29500  Biso   1.000  C 
  H81      1.0000 0.60530  0.59900  0.32300  Biso   1.000  H 
  C100     1.0000 0.56530  0.60030  0.26870  Biso   1.000  C 
  C101     1.0000 0.56680  0.61110  0.22690  Biso   1.000  C 
  C102     1.0000 0.60930  0.62790  0.21120  Biso   1.000  C 
  H82      1.0000 0.61030  0.63510  0.18320  Biso   1.000  H 
  C103     1.0000 0.65030  0.63380  0.23750  Biso   1.000  C 
  H83      1.0000 0.67870  0.64500  0.22700  Biso   1.000  H 
  H84      1.0000 0.53940  0.60720  0.20930  Biso   1.000  H 
  H85      1.0000 0.53680  0.58910  0.27920  Biso   1.000  H 
  C104     1.0000 0.60820  0.32170  0.34550  Biso   1.000  C 
  C105     1.0000 0.59600  0.24580  0.31830  Biso   1.000  C 
  H86      1.0000 0.61840  0.20010  0.31240  Biso   1.000  H 
  C106     1.0000 0.55050  0.23830  0.29980  Biso   1.000  C 
  C107     1.0000 0.51700  0.30670  0.30860  Biso   1.000  C 
  H87      1.0000 0.48650  0.30170  0.29630  Biso   1.000  H 
  C108     1.0000 0.52910  0.38260  0.33590  Biso   1.000  C 
  H88      1.0000 0.50670  0.42840  0.34180  Biso   1.000  H 
  C109     1.0000 0.57470  0.39010  0.35440  Biso   1.000  C 
  H89      1.0000 0.58280  0.44090  0.37260  Biso   1.000  H 
  H90      1.0000 0.54240  0.18760  0.28160  Biso   1.000  H 
  C110     1.0000 0.68700  0.01930  0.32250  Biso   1.000  C 
  C111     1.0000 0.71820  0.01840  0.35760  Biso   1.000  C 
  H91      1.0000 0.74494  0.07505  0.36236  Biso   1.000  H 
  C112     1.0000 0.71530  0.94510  0.38670  Biso   1.000  C 
  C113     1.0000 0.68120  0.87280  0.38060  Biso   1.000  C 
  C114     1.0000 0.65000  0.87370  0.34540  Biso   1.000  C 
  C115     1.0000 0.65290  0.94690  0.31640  Biso   1.000  C 
  H92      1.0000 0.63200  0.94750  0.29290  Biso   1.000  H 
  H93      1.0000 0.62720  0.82530  0.34130  Biso   1.000  H 
  H94      1.0000 0.67920  0.82380  0.40000  Biso   1.000  H 
  H95      1.0000 0.73620  0.94450  0.41020  Biso   1.000  H 
  C116     1.0000 0.90400  0.74580  0.18170  Biso   1.000  C 
  H96      1.0000 0.88160  0.70010  0.18760  Biso   1.000  H 
  C117     1.0000 0.94950  0.73830  0.20020  Biso   1.000  C 
  C118     1.0000 0.98300  0.80670  0.19140  Biso   1.000  C 
  C119     1.0000 0.97090  0.88260  0.16410  Biso   1.000  C 
  H97      1.0000 0.99330  0.92840  0.15820  Biso   1.000  H 
  C120     1.0000 0.92530  0.89010  0.14560  Biso   1.000  C 
  H98      1.0000 0.91720  0.94090  0.12740  Biso   1.000  H 
  H99      1.0000 0.01350  0.80170  0.20370  Biso   1.000  H 
  H100     1.0000 0.95760  0.68760  0.21840  Biso   1.000  H 
