data_image0
_cell_length_a       9.8615
_cell_length_b       14.6221
_cell_length_c       21.275
_cell_angle_alpha    85.965
_cell_angle_beta     86.945
_cell_angle_gamma    73.603

_symmetry_space_group_name_H-M    "P 1"
_symmetry_int_tables_number       1

loop_
  _symmetry_equiv_pos_as_xyz
  'x, y, z'

loop_
  _atom_site_label
  _atom_site_occupancy
  _atom_site_fract_x
  _atom_site_fract_y
  _atom_site_fract_z
  _atom_site_thermal_displace_type
  _atom_site_B_iso_or_equiv
  _atom_site_type_symbol
  C1       1.0000 0.04990  0.71090  0.60730  Biso   1.000  C 
  C2       1.0000 0.09480  0.71950  0.66620  Biso   1.000  C 
  H1       1.0000 0.14800  0.76150  0.67170  Biso   1.000  H 
  C3       1.0000 0.06000  0.66480  0.71756  Biso   1.000  C 
  C4       1.0000 0.10810  0.67060  0.78159  Biso   1.000  C 
  C5       1.0000 0.12480  0.75690  0.80055  Biso   1.000  C 
  H2       1.0000 0.10460  0.80920  0.77170  Biso   1.000  H 
  C6       1.0000 0.16880  0.76920  0.85901  Biso   1.000  C 
  C7       1.0000 0.20720  0.68660  0.90219  Biso   1.000  C 
  C8       1.0000 0.18490  0.60010  0.88451  Biso   1.000  C 
  C9       1.0000 0.20390  0.51870  0.92761  Biso   1.000  C 
  H3       1.0000 0.18450  0.46520  0.91340  Biso   1.000  H 
  N1       1.0000 0.24570  0.51270  0.98457  Biso   1.000  N 
  C10      1.0000 0.21210  0.44240  0.03350  Biso   1.000  C 
  C11      1.0000 0.18400  0.35900  0.00990  Biso   1.000  C 
  C12      1.0000 0.16800  0.28540  0.06360  Biso   1.000  C 
  C13      1.0000 0.29560  0.26070  0.10520  Biso   1.000  C 
  H4       1.0000 0.37740  0.22390  0.08170  Biso   1.000  H 
  H5       1.0000 0.27830  0.22070  0.14130  Biso   1.000  H 
  C14      1.0000 0.33100  0.35180  0.12980  Biso   1.000  C 
  H6       1.0000 0.41910  0.33280  0.15200  Biso   1.000  H 
  H7       1.0000 0.25610  0.38540  0.15820  Biso   1.000  H 
  C15      1.0000 0.34390  0.41520  0.07070  Biso   1.000  C 
  H8       1.0000 0.42500  0.38260  0.04410  Biso   1.000  H 
  N2       1.0000 0.35940  0.51160  0.08723  Biso   1.000  N 
  Ni1      1.0000 0.30782  0.60307  0.02238  Biso   1.000  Ni
  O1       1.0000 0.36720  0.69440  0.06110  Biso   1.000  O 
  C16      1.0000 0.43170  0.68610  0.11408  Biso   1.000  C 
  C17      1.0000 0.47380  0.59700  0.15013  Biso   1.000  C 
  C18      1.0000 0.55270  0.58840  0.20459  Biso   1.000  C 
  H9       1.0000 0.58220  0.52920  0.22650  Biso   1.000  H 
  C19      1.0000 0.58720  0.66480  0.22617  Biso   1.000  C 
  C20      1.0000 0.53850  0.75350  0.19227  Biso   1.000  C 
  C21      1.0000 0.46250  0.76800  0.13817  Biso   1.000  C 
  C22      1.0000 0.41220  0.86770  0.10459  Biso   1.000  C 
  C23      1.0000 0.25160  0.89670  0.09910  Biso   1.000  C 
  H10      1.0000 0.20740  0.90000  0.14050  Biso   1.000  H 
  H11      1.0000 0.22160  0.95800  0.07690  Biso   1.000  H 
  H12      1.0000 0.22500  0.85020  0.07650  Biso   1.000  H 
  C24      1.0000 0.48370  0.86650  0.03953  Biso   1.000  C 
  H13      1.0000 0.46590  0.81700  0.01660  Biso   1.000  H 
  H14      1.0000 0.58370  0.85460  0.04360  Biso   1.000  H 
  H15      1.0000 0.44660  0.92720  0.01720  Biso   1.000  H 
  C25      1.0000 0.44820  0.94410  0.14100  Biso   1.000  C 
  H16      1.0000 0.54900  0.92990  0.14350  Biso   1.000  H 
  H17      1.0000 0.40600  0.94480  0.18270  Biso   1.000  H 
  H18      1.0000 0.41220  0.00550  0.11940  Biso   1.000  H 
  H19      1.0000 0.55920  0.80600  0.20750  Biso   1.000  H 
  C26      1.0000 0.67020  0.65570  0.28353  Biso   1.000  C 
  C27      1.0000 0.73210  0.72420  0.29858  Biso   1.000  C 
  C28      1.0000 0.80310  0.71460  0.35382  Biso   1.000  C 
  N3       1.0000 0.82090  0.63975  0.39445  Biso   1.000  N 
  C29      1.0000 0.76550  0.57210  0.37922  Biso   1.000  C 
  C30      1.0000 0.69080  0.57690  0.32573  Biso   1.000  C 
  H20      1.0000 0.65400  0.52700  0.31790  Biso   1.000  H 
  H21      1.0000 0.77780  0.51800  0.40640  Biso   1.000  H 
  Cd1      1.0000 0.90823  0.64432  0.49307  Biso   1.000  Cd
  O2       1.0000 0.83610  0.81387  0.47988  Biso   1.000  O 
  C31      1.0000 0.71440  0.81710  0.50172  Biso   1.000  C 
  O3       1.0000 0.68050  0.74475  0.52302  Biso   1.000  O 
  C32      1.0000 0.60370  0.91250  0.50144  Biso   1.000  C 
  C33      1.0000 0.63560  0.99390  0.47662  Biso   1.000  C 
  H22      1.0000 0.72630  0.99040  0.46050  Biso   1.000  H 
  C34      1.0000 0.53190  0.08150  0.47569  Biso   1.000  C 
  H23      1.0000 0.55440  0.13630  0.45950  Biso   1.000  H 
  C35      1.0000 0.39630  0.08750  0.49856  Biso   1.000  C 
  C36      1.0000 0.36440  0.00610  0.52338  Biso   1.000  C 
  H24      1.0000 0.27370  0.00960  0.53950  Biso   1.000  H 
  C37      1.0000 0.46810  0.91850  0.52431  Biso   1.000  C 
  H25      1.0000 0.44560  0.86370  0.54050  Biso   1.000  H 
  C38      1.0000 0.28560  0.18290  0.49828  Biso   1.000  C 
  O4       1.0000 0.31950  0.25525  0.47698  Biso   1.000  O 
  Cd2      1.0000 0.09177  0.35568  0.50694  Biso   1.000  Cd
  N4       1.0000 0.02680  0.34847  0.40408  Biso   1.000  N 
  C39      1.0000 0.95010  0.28910  0.39270  Biso   1.000  C 
  C40      1.0000 0.90520  0.28050  0.33380  Biso   1.000  C 
  C41      1.0000 0.94000  0.33520  0.28244  Biso   1.000  C 
  C42      1.0000 0.89190  0.32940  0.21841  Biso   1.000  C 
  C43      1.0000 0.86460  0.40660  0.17538  Biso   1.000  C 
  H26      1.0000 0.87890  0.46370  0.18600  Biso   1.000  H 
  C44      1.0000 0.81510  0.39990  0.11549  Biso   1.000  C 
  C45      1.0000 0.79610  0.48130  0.07239  Biso   1.000  C 
  H27      1.0000 0.81550  0.53480  0.08660  Biso   1.000  H 
  N5       1.0000 0.75430  0.48730  0.01543  Biso   1.000  N 
  C46      1.0000 0.78790  0.55760  0.96650  Biso   1.000  C 
  H28      1.0000 0.86830  0.52480  0.93970  Biso   1.000  H 
  C47      1.0000 0.65610  0.58480  0.92930  Biso   1.000  C 
  N6       1.0000 0.64060  0.48840  0.91277  Biso   1.000  N 
  Ni2      1.0000 0.69218  0.39693  0.97762  Biso   1.000  Ni
  O5       1.0000 0.63280  0.30560  0.93890  Biso   1.000  O 
  C48      1.0000 0.56830  0.31390  0.88592  Biso   1.000  C 
  C49      1.0000 0.52620  0.40300  0.84987  Biso   1.000  C 
  C50      1.0000 0.44730  0.41160  0.79541  Biso   1.000  C 
  C51      1.0000 0.41280  0.33520  0.77383  Biso   1.000  C 
  C52      1.0000 0.32980  0.34430  0.71647  Biso   1.000  C 
  C53      1.0000 0.26790  0.27580  0.70142  Biso   1.000  C 
  H29      1.0000 0.27410  0.22240  0.72880  Biso   1.000  H 
  C54      1.0000 0.19690  0.28540  0.64618  Biso   1.000  C 
  H30      1.0000 0.15940  0.23650  0.63690  Biso   1.000  H 
  N7       1.0000 0.17910  0.36025  0.60555  Biso   1.000  N 
  C55      1.0000 0.23450  0.42790  0.62078  Biso   1.000  C 
  H31      1.0000 0.22220  0.48200  0.59360  Biso   1.000  H 
  C56      1.0000 0.30920  0.42310  0.67427  Biso   1.000  C 
  H32      1.0000 0.34600  0.47300  0.68210  Biso   1.000  H 
  C57      1.0000 0.46150  0.24650  0.80773  Biso   1.000  C 
  H33      1.0000 0.44080  0.19400  0.79250  Biso   1.000  H 
  C58      1.0000 0.53750  0.23200  0.86183  Biso   1.000  C 
  C59      1.0000 0.58780  0.13230  0.89541  Biso   1.000  C 
  C60      1.0000 0.51630  0.13350  0.96047  Biso   1.000  C 
  H34      1.0000 0.41630  0.14540  0.95640  Biso   1.000  H 
  H35      1.0000 0.55340  0.07280  0.98280  Biso   1.000  H 
  H36      1.0000 0.53410  0.18300  0.98340  Biso   1.000  H 
  C61      1.0000 0.55180  0.05590  0.85900  Biso   1.000  C 
  H37      1.0000 0.59400  0.05520  0.81730  Biso   1.000  H 
  H38      1.0000 0.45100  0.07010  0.85650  Biso   1.000  H 
  H39      1.0000 0.58780  0.99450  0.88060  Biso   1.000  H 
  C62      1.0000 0.74840  0.10330  0.90090  Biso   1.000  C 
  H40      1.0000 0.79260  0.10000  0.85950  Biso   1.000  H 
  H41      1.0000 0.77500  0.14980  0.92350  Biso   1.000  H 
  H42      1.0000 0.77840  0.04200  0.92310  Biso   1.000  H 
  H43      1.0000 0.41780  0.47080  0.77350  Biso   1.000  H 
  C63      1.0000 0.56730  0.48350  0.86537  Biso   1.000  C 
  H44      1.0000 0.53870  0.53830  0.83880  Biso   1.000  H 
  O6       1.0000 0.74060  0.30641  0.04355  Biso   1.000  O 
  C64      1.0000 0.79280  0.31340  0.09781  Biso   1.000  C 
  C65      1.0000 0.83120  0.23080  0.14099  Biso   1.000  C 
  C66      1.0000 0.82260  0.13340  0.12283  Biso   1.000  C 
  C67      1.0000 0.90840  0.10560  0.06101  Biso   1.000  C 
  H45      1.0000 0.87360  0.15400  0.02830  Biso   1.000  H 
  H46      1.0000 0.89880  0.04570  0.04910  Biso   1.000  H 
  H47      1.0000 0.00630  0.09990  0.06710  Biso   1.000  H 
  C68      1.0000 0.66720  0.13740  0.11530  Biso   1.000  C 
  H48      1.0000 0.66150  0.07710  0.10230  Biso   1.000  H 
  H49      1.0000 0.61620  0.15090  0.15480  Biso   1.000  H 
  H50      1.0000 0.62660  0.18680  0.08400  Biso   1.000  H 
  C69      1.0000 0.88400  0.05370  0.17297  Biso   1.000  C 
  H51      1.0000 0.97970  0.05250  0.18040  Biso   1.000  H 
  H52      1.0000 0.82820  0.06560  0.21150  Biso   1.000  H 
  H53      1.0000 0.88240  0.99340  0.15840  Biso   1.000  H 
  C70      1.0000 0.87520  0.24310  0.19945  Biso   1.000  C 
  H54      1.0000 0.89540  0.19080  0.22830  Biso   1.000  H 
  H55      1.0000 0.57500  0.61740  0.95590  Biso   1.000  H 
  C71      1.0000 0.66900  0.64820  0.87020  Biso   1.000  C 
  H56      1.0000 0.74390  0.61460  0.84180  Biso   1.000  H 
  H57      1.0000 0.58090  0.66720  0.84800  Biso   1.000  H 
  C72      1.0000 0.70440  0.73930  0.89480  Biso   1.000  C 
  H58      1.0000 0.72170  0.77930  0.85870  Biso   1.000  H 
  H59      1.0000 0.62260  0.77610  0.91830  Biso   1.000  H 
  C73      1.0000 0.83200  0.71460  0.93640  Biso   1.000  C 
  H60      1.0000 0.91740  0.68830  0.91140  Biso   1.000  H 
  H61      1.0000 0.84010  0.77200  0.95430  Biso   1.000  H 
  C74      1.0000 0.81600  0.64100  0.99010  Biso   1.000  C 
  H62      1.0000 0.73850  0.67110  0.01860  Biso   1.000  H 
  H63      1.0000 0.90150  0.62110  0.01370  Biso   1.000  H 
  C75      1.0000 0.02230  0.39530  0.29409  Biso   1.000  C 
  H64      1.0000 0.04950  0.43250  0.26120  Biso   1.000  H 
  C76      1.0000 0.06310  0.39920  0.35484  Biso   1.000  C 
  H65      1.0000 0.11860  0.43930  0.36170  Biso   1.000  H 
  H66      1.0000 0.85200  0.23850  0.32830  Biso   1.000  H 
  H67      1.0000 0.92610  0.25190  0.42640  Biso   1.000  H 
  O7       1.0000 0.13700  0.49889  0.47004  Biso   1.000  O 
  C77      1.0000 0.20230  0.56020  0.47198  Biso   1.000  C 
  C78      1.0000 0.35810  0.52970  0.48453  Biso   1.000  C 
  C79      1.0000 0.43850  0.43680  0.47556  Biso   1.000  C 
  H68      1.0000 0.39730  0.39390  0.45950  Biso   1.000  H 
  C80      1.0000 0.58010  0.40760  0.49047  Biso   1.000  C 
  H69      1.0000 0.63380  0.34550  0.48360  Biso   1.000  H 
  C81      1.0000 0.64190  0.47030  0.51547  Biso   1.000  C 
  C82      1.0000 0.56150  0.56320  0.52444  Biso   1.000  C 
  C83      1.0000 0.41990  0.59240  0.50953  Biso   1.000  C 
  H70      1.0000 0.36620  0.65450  0.51640  Biso   1.000  H 
  H71      1.0000 0.60270  0.60610  0.54050  Biso   1.000  H 
  C84      1.0000 0.79770  0.43980  0.52802  Biso   1.000  C 
  O8       1.0000 0.85910  0.35213  0.53315  Biso   1.000  O 
  O9       1.0000 0.86300  0.50111  0.52996  Biso   1.000  O 
  O10      1.0000 0.14090  0.64787  0.46685  Biso   1.000  O 
  O11      1.0000 0.16390  0.18613  0.52012  Biso   1.000  O 
  N8       1.0000 0.97320  0.65153  0.59592  Biso   1.000  N 
  C85      1.0000 0.93690  0.60080  0.64516  Biso   1.000  C 
  H72      1.0000 0.88140  0.56070  0.63830  Biso   1.000  H 
  C86      1.0000 0.97770  0.60470  0.70591  Biso   1.000  C 
  H73      1.0000 0.95050  0.56750  0.73880  Biso   1.000  H 
  H74      1.0000 0.84060  0.76350  0.36310  Biso   1.000  H 
  H75      1.0000 0.72590  0.77760  0.27120  Biso   1.000  H 
  C87      1.0000 0.43270  0.51650  0.13463  Biso   1.000  C 
  H76      1.0000 0.46130  0.46170  0.16120  Biso   1.000  H 
  O12      1.0000 0.25940  0.69359  0.95645  Biso   1.000  O 
  H77      1.0000 0.15990  0.22800  0.04570  Biso   1.000  H 
  H78      1.0000 0.08260  0.31170  0.08860  Biso   1.000  H 
  H79      1.0000 0.26150  0.32890  0.98140  Biso   1.000  H 
  H80      1.0000 0.09850  0.37890  0.98630  Biso   1.000  H 
  H81      1.0000 0.13170  0.47520  0.06030  Biso   1.000  H 
  C88      1.0000 0.13540  0.59340  0.82462  Biso   1.000  C 
  H82      1.0000 0.12110  0.53630  0.81400  Biso   1.000  H 
  C89      1.0000 0.17740  0.86660  0.87717  Biso   1.000  C 
  C90      1.0000 0.11600  0.94630  0.82703  Biso   1.000  C 
  H83      1.0000 0.17180  0.93440  0.78850  Biso   1.000  H 
  H84      1.0000 0.02030  0.94750  0.81960  Biso   1.000  H 
  H85      1.0000 0.11760  0.00660  0.84160  Biso   1.000  H 
  C91      1.0000 0.09160  0.89440  0.93899  Biso   1.000  C 
  H86      1.0000 0.10120  0.95430  0.95090  Biso   1.000  H 
  H87      1.0000 0.12640  0.84600  0.97170  Biso   1.000  H 
  H88      1.0000 0.99370  0.90010  0.93290  Biso   1.000  H 
  C92      1.0000 0.33280  0.86260  0.88470  Biso   1.000  C 
  H89      1.0000 0.37340  0.81320  0.91600  Biso   1.000  H 
  H90      1.0000 0.33850  0.92290  0.89770  Biso   1.000  H 
  H91      1.0000 0.38380  0.84910  0.84520  Biso   1.000  H 
  H92      1.0000 0.07390  0.74810  0.57360  Biso   1.000  H 
