data_image0
_cell_length_a       13.3135
_cell_length_b       24.4807
_cell_length_c       8.57156
_cell_angle_alpha    90
_cell_angle_beta     99.1319
_cell_angle_gamma    90

_symmetry_space_group_name_H-M    "P 1"
_symmetry_int_tables_number       1

loop_
  _symmetry_equiv_pos_as_xyz
  'x, y, z'

loop_
  _atom_site_label
  _atom_site_occupancy
  _atom_site_fract_x
  _atom_site_fract_y
  _atom_site_fract_z
  _atom_site_thermal_displace_type
  _atom_site_B_iso_or_equiv
  _atom_site_type_symbol
  Co1      1.0000 0.72759  0.59778  0.12152  Biso   1.000  Co
  N1       1.0000 0.59410  0.56130  0.17010  Biso   1.000  N 
  C1       1.0000 0.50360  0.58840  0.14450  Biso   1.000  C 
  H1       1.0000 0.50020  0.62290  0.09320  Biso   1.000  H 
  C2       1.0000 0.41750  0.56740  0.19030  Biso   1.000  C 
  H2       1.0000 0.35600  0.58770  0.17110  Biso   1.000  H 
  C3       1.0000 0.41860  0.51670  0.26480  Biso   1.000  C 
  C4       1.0000 0.33110  0.49320  0.32330  Biso   1.000  C 
  H3       1.0000 0.33250  0.45500  0.34360  Biso   1.000  H 
  C5       1.0000 0.24960  0.52080  0.35040  Biso   1.000  C 
  C6       1.0000 0.16110  0.49830  0.41130  Biso   1.000  C 
  C7       1.0000 0.08990  0.53360  0.45820  Biso   1.000  C 
  H4       1.0000 0.09970  0.57190  0.45180  Biso   1.000  H 
  C8       1.0000 0.00440  0.51380  0.51440  Biso   1.000  C 
  C9       1.0000 0.98920  0.45830  0.52550  Biso   1.000  C 
  C10      1.0000 0.89320  0.43580  0.57400  Biso   1.000  C 
  Co2      1.0000 0.72759  0.40222  0.62152  Biso   1.000  Co
  C11      1.0000 0.64110  0.34630  0.39360  Biso   1.000  C 
  C12      1.0000 0.58940  0.31820  0.24820  Biso   1.000  C 
  C13      1.0000 0.58500  0.34300  0.10410  Biso   1.000  C 
  H5       1.0000 0.61370  0.37840  0.09930  Biso   1.000  H 
  C14      1.0000 0.53980  0.31820  0.96500  Biso   1.000  C 
  C15      1.0000 0.49490  0.26780  0.97080  Biso   1.000  C 
  C16      1.0000 0.49730  0.24190  0.11590  Biso   1.000  C 
  H6       1.0000 0.46670  0.20700  0.12000  Biso   1.000  H 
  C17      1.0000 0.54400  0.26660  0.25520  Biso   1.000  C 
  H7       1.0000 0.54520  0.24870  0.35380  Biso   1.000  H 
  C18      1.0000 0.44660  0.24500  0.81140  Biso   1.000  C 
  C19      1.0000 0.39980  0.19930  0.79180  Biso   1.000  C 
  C20      1.0000 0.35590  0.17790  0.63330  Biso   1.000  C 
  C21      1.0000 0.33910  0.20920  0.49510  Biso   1.000  C 
  H8       1.0000 0.35610  0.24700  0.49840  Biso   1.000  H 
  C22      1.0000 0.29750  0.18490  0.35290  Biso   1.000  C 
  H9       1.0000 0.28470  0.20670  0.26000  Biso   1.000  H 
  N2       1.0000 0.27490  0.13130  0.34360  Biso   1.000  N 
  C23      1.0000 0.29220  0.10210  0.47760  Biso   1.000  C 
  H10      1.0000 0.27600  0.06430  0.47220  Biso   1.000  H 
  C24      1.0000 0.33200  0.12360  0.62200  Biso   1.000  C 
  H11      1.0000 0.34280  0.10100  0.71320  Biso   1.000  H 
  Co3      1.0000 0.22759  0.09778  0.12152  Biso   1.000  Co
  N3       1.0000 0.09410  0.06130  0.17010  Biso   1.000  N 
  C25      1.0000 0.00360  0.08840  0.14450  Biso   1.000  C 
  H12      1.0000 0.00020  0.12290  0.09320  Biso   1.000  H 
  C26      1.0000 0.91750  0.06740  0.19030  Biso   1.000  C 
  H13      1.0000 0.85600  0.08770  0.17110  Biso   1.000  H 
  C27      1.0000 0.91860  0.01670  0.26480  Biso   1.000  C 
  C28      1.0000 0.01010  0.98790  0.28220  Biso   1.000  C 
  H14      1.0000 0.01390  0.95220  0.32590  Biso   1.000  H 
  C29      1.0000 0.09550  0.01130  0.23590  Biso   1.000  C 
  H15      1.0000 0.15750  0.99130  0.25120  Biso   1.000  H 
  C30      1.0000 0.83110  0.99320  0.32330  Biso   1.000  C 
  H16      1.0000 0.83250  0.95500  0.34360  Biso   1.000  H 
  C31      1.0000 0.74960  0.02080  0.35040  Biso   1.000  C 
  H17      1.0000 0.74840  0.05880  0.32820  Biso   1.000  H 
  C32      1.0000 0.66110  0.99830  0.41130  Biso   1.000  C 
  C33      1.0000 0.58990  0.03360  0.45820  Biso   1.000  C 
  H18      1.0000 0.59970  0.07190  0.45180  Biso   1.000  H 
  C34      1.0000 0.50440  0.01380  0.51440  Biso   1.000  C 
  H19      1.0000 0.45630  0.03860  0.54520  Biso   1.000  H 
  C35      1.0000 0.48920  0.95830  0.52550  Biso   1.000  C 
  C36      1.0000 0.39320  0.93580  0.57400  Biso   1.000  C 
  Co4      1.0000 0.22759  0.90222  0.62152  Biso   1.000  Co
  O1       1.0000 0.14950  0.82380  0.52800  Biso   1.000  O 
  C37      1.0000 0.14110  0.84630  0.39360  Biso   1.000  C 
  C38      1.0000 0.08940  0.81820  0.24820  Biso   1.000  C 
  C39      1.0000 0.08500  0.84300  0.10410  Biso   1.000  C 
  H20      1.0000 0.11370  0.87840  0.09930  Biso   1.000  H 
  C40      1.0000 0.03980  0.81820  0.96500  Biso   1.000  C 
  H21      1.0000 0.03980  0.83590  0.86640  Biso   1.000  H 
  C41      1.0000 0.99490  0.76780  0.97080  Biso   1.000  C 
  C42      1.0000 0.99730  0.74190  0.11590  Biso   1.000  C 
  H22      1.0000 0.96670  0.70700  0.12000  Biso   1.000  H 
  C43      1.0000 0.04400  0.76660  0.25520  Biso   1.000  C 
  H23      1.0000 0.04520  0.74870  0.35380  Biso   1.000  H 
  C44      1.0000 0.94660  0.74500  0.81140  Biso   1.000  C 
  C45      1.0000 0.89980  0.69930  0.79180  Biso   1.000  C 
  C46      1.0000 0.85590  0.67790  0.63330  Biso   1.000  C 
  C47      1.0000 0.83910  0.70920  0.49510  Biso   1.000  C 
  H24      1.0000 0.85610  0.74700  0.49840  Biso   1.000  H 
  C48      1.0000 0.79750  0.68490  0.35290  Biso   1.000  C 
  H25      1.0000 0.78470  0.70670  0.26000  Biso   1.000  H 
  N4       1.0000 0.77490  0.63130  0.34360  Biso   1.000  N 
  C49      1.0000 0.79220  0.60210  0.47760  Biso   1.000  C 
  H26      1.0000 0.77600  0.56430  0.47220  Biso   1.000  H 
  C50      1.0000 0.83200  0.62360  0.62200  Biso   1.000  C 
  H27      1.0000 0.84280  0.60100  0.71320  Biso   1.000  H 
  H28      1.0000 0.89280  0.67820  0.88240  Biso   1.000  H 
  H29      1.0000 0.95160  0.76620  0.72010  Biso   1.000  H 
  O2       1.0000 0.17480  0.89370  0.37750  Biso   1.000  O 
  N5       1.0000 0.09410  0.93870  0.67010  Biso   1.000  N 
  C51      1.0000 0.00360  0.91160  0.64450  Biso   1.000  C 
  H30      1.0000 0.00020  0.87710  0.59320  Biso   1.000  H 
  C52      1.0000 0.91750  0.93260  0.69030  Biso   1.000  C 
  H31      1.0000 0.85600  0.91230  0.67110  Biso   1.000  H 
  C53      1.0000 0.91860  0.98330  0.76480  Biso   1.000  C 
  C54      1.0000 0.83110  0.00680  0.82330  Biso   1.000  C 
  H32      1.0000 0.83250  0.04500  0.84360  Biso   1.000  H 
  C55      1.0000 0.74960  0.97920  0.85040  Biso   1.000  C 
  H33      1.0000 0.74840  0.94120  0.82820  Biso   1.000  H 
  C56      1.0000 0.66110  0.00170  0.91130  Biso   1.000  C 
  C57      1.0000 0.64690  0.05740  0.92760  Biso   1.000  C 
  C58      1.0000 0.56190  0.07710  0.98360  Biso   1.000  C 
  H34      1.0000 0.55310  0.11540  0.99360  Biso   1.000  H 
  C59      1.0000 0.48920  0.04170  0.02550  Biso   1.000  C 
  C60      1.0000 0.39320  0.06420  0.07400  Biso   1.000  C 
  O3       1.0000 0.32540  0.03183  0.10700  Biso   1.000  O 
  O4       1.0000 0.38180  0.11500  0.07690  Biso   1.000  O 
  C61      1.0000 0.50440  0.98620  0.01440  Biso   1.000  C 
  H35      1.0000 0.45630  0.96140  0.04520  Biso   1.000  H 
  C62      1.0000 0.58990  0.96640  0.95820  Biso   1.000  C 
  H36      1.0000 0.59970  0.92810  0.95180  Biso   1.000  H 
  H37      1.0000 0.69600  0.08230  0.90000  Biso   1.000  H 
  C63      1.0000 0.01010  0.01210  0.78220  Biso   1.000  C 
  H38      1.0000 0.01390  0.04780  0.82590  Biso   1.000  H 
  C64      1.0000 0.09550  0.98870  0.73590  Biso   1.000  C 
  H39      1.0000 0.15750  0.00870  0.75120  Biso   1.000  H 
  N6       1.0000 0.27490  0.86870  0.84360  Biso   1.000  N 
  C65      1.0000 0.29220  0.89790  0.97760  Biso   1.000  C 
  H40      1.0000 0.27600  0.93570  0.97220  Biso   1.000  H 
  C66      1.0000 0.33200  0.87640  0.12200  Biso   1.000  C 
  H41      1.0000 0.34280  0.89900  0.21320  Biso   1.000  H 
  C67      1.0000 0.35590  0.82210  0.13330  Biso   1.000  C 
  C68      1.0000 0.39980  0.80070  0.29180  Biso   1.000  C 
  H42      1.0000 0.39280  0.82180  0.38240  Biso   1.000  H 
  C69      1.0000 0.44660  0.75500  0.31140  Biso   1.000  C 
  H43      1.0000 0.45160  0.73380  0.22010  Biso   1.000  H 
  C70      1.0000 0.49490  0.73220  0.47080  Biso   1.000  C 
  C71      1.0000 0.49730  0.75810  0.61590  Biso   1.000  C 
  H44      1.0000 0.46670  0.79300  0.62000  Biso   1.000  H 
  C72      1.0000 0.54400  0.73340  0.75520  Biso   1.000  C 
  C73      1.0000 0.58940  0.68180  0.74820  Biso   1.000  C 
  C74      1.0000 0.58500  0.65700  0.60410  Biso   1.000  C 
  C75      1.0000 0.53980  0.68180  0.46500  Biso   1.000  C 
  H45      1.0000 0.53980  0.66410  0.36640  Biso   1.000  H 
  H46      1.0000 0.61370  0.62160  0.59930  Biso   1.000  H 
  C76      1.0000 0.64110  0.65370  0.89360  Biso   1.000  C 
  O5       1.0000 0.64950  0.67620  0.02800  Biso   1.000  O 
  O6       1.0000 0.67480  0.60630  0.87750  Biso   1.000  O 
  H47      1.0000 0.54520  0.75130  0.85380  Biso   1.000  H 
  C77      1.0000 0.33910  0.79080  0.99510  Biso   1.000  C 
  H48      1.0000 0.35610  0.75300  0.99840  Biso   1.000  H 
  C78      1.0000 0.29750  0.81510  0.85290  Biso   1.000  C 
  H49      1.0000 0.28470  0.79330  0.76000  Biso   1.000  H 
  O7       1.0000 0.32540  0.96817  0.60700  Biso   1.000  O 
  O8       1.0000 0.38180  0.88500  0.57690  Biso   1.000  O 
  C79      1.0000 0.56190  0.92290  0.48360  Biso   1.000  C 
  H50      1.0000 0.55310  0.88460  0.49360  Biso   1.000  H 
  C80      1.0000 0.64690  0.94260  0.42760  Biso   1.000  C 
  H51      1.0000 0.69600  0.91770  0.40000  Biso   1.000  H 
  O9       1.0000 0.14950  0.17620  0.02800  Biso   1.000  O 
  C81      1.0000 0.14110  0.15370  0.89360  Biso   1.000  C 
  C82      1.0000 0.08940  0.18180  0.74820  Biso   1.000  C 
  C83      1.0000 0.08500  0.15700  0.60410  Biso   1.000  C 
  C84      1.0000 0.03980  0.18180  0.46500  Biso   1.000  C 
  H52      1.0000 0.03980  0.16410  0.36640  Biso   1.000  H 
  C85      1.0000 0.99490  0.23220  0.47080  Biso   1.000  C 
  C86      1.0000 0.99730  0.25810  0.61590  Biso   1.000  C 
  H53      1.0000 0.96670  0.29300  0.62000  Biso   1.000  H 
  C87      1.0000 0.04400  0.23340  0.75520  Biso   1.000  C 
  H54      1.0000 0.04520  0.25130  0.85380  Biso   1.000  H 
  C88      1.0000 0.94660  0.25500  0.31140  Biso   1.000  C 
  H55      1.0000 0.95160  0.23380  0.22010  Biso   1.000  H 
  C89      1.0000 0.89980  0.30070  0.29180  Biso   1.000  C 
  C90      1.0000 0.85590  0.32210  0.13330  Biso   1.000  C 
  C91      1.0000 0.83200  0.37640  0.12200  Biso   1.000  C 
  H56      1.0000 0.84280  0.39900  0.21320  Biso   1.000  H 
  C92      1.0000 0.79220  0.39790  0.97760  Biso   1.000  C 
  H57      1.0000 0.77600  0.43570  0.97220  Biso   1.000  H 
  N7       1.0000 0.77490  0.36870  0.84360  Biso   1.000  N 
  C93      1.0000 0.79750  0.31510  0.85290  Biso   1.000  C 
  H58      1.0000 0.78470  0.29330  0.76000  Biso   1.000  H 
  C94      1.0000 0.83910  0.29080  0.99510  Biso   1.000  C 
  H59      1.0000 0.85610  0.25300  0.99840  Biso   1.000  H 
  H60      1.0000 0.89280  0.32180  0.38240  Biso   1.000  H 
  H61      1.0000 0.11370  0.12160  0.59930  Biso   1.000  H 
  O10      1.0000 0.17480  0.10630  0.87750  Biso   1.000  O 
  H62      1.0000 0.39280  0.17820  0.88240  Biso   1.000  H 
  H63      1.0000 0.45160  0.26620  0.72010  Biso   1.000  H 
  H64      1.0000 0.53980  0.33590  0.86640  Biso   1.000  H 
  O11      1.0000 0.67480  0.39370  0.37750  Biso   1.000  O 
  O12      1.0000 0.64950  0.32380  0.52800  Biso   1.000  O 
  N8       1.0000 0.59410  0.43870  0.67010  Biso   1.000  N 
  C95      1.0000 0.50360  0.41160  0.64450  Biso   1.000  C 
  H65      1.0000 0.50020  0.37710  0.59320  Biso   1.000  H 
  C96      1.0000 0.41750  0.43260  0.69030  Biso   1.000  C 
  H66      1.0000 0.35600  0.41230  0.67110  Biso   1.000  H 
  C97      1.0000 0.41860  0.48330  0.76480  Biso   1.000  C 
  C98      1.0000 0.33110  0.50680  0.82330  Biso   1.000  C 
  H67      1.0000 0.33250  0.54500  0.84360  Biso   1.000  H 
  C99      1.0000 0.24960  0.47920  0.85040  Biso   1.000  C 
  H68      1.0000 0.24840  0.44120  0.82820  Biso   1.000  H 
  C100     1.0000 0.16110  0.50170  0.91130  Biso   1.000  C 
  C101     1.0000 0.08990  0.46640  0.95820  Biso   1.000  C 
  H69      1.0000 0.09970  0.42810  0.95180  Biso   1.000  H 
  C102     1.0000 0.00440  0.48620  0.01440  Biso   1.000  C 
  C103     1.0000 0.98920  0.54170  0.02550  Biso   1.000  C 
  C104     1.0000 0.89320  0.56420  0.07400  Biso   1.000  C 
  O13      1.0000 0.82540  0.53183  0.10700  Biso   1.000  O 
  O14      1.0000 0.88180  0.61500  0.07690  Biso   1.000  O 
  C105     1.0000 0.06190  0.57710  0.98360  Biso   1.000  C 
  H70      1.0000 0.05310  0.61540  0.99360  Biso   1.000  H 
  C106     1.0000 0.14690  0.55740  0.92760  Biso   1.000  C 
  H71      1.0000 0.19600  0.58230  0.90000  Biso   1.000  H 
  H72      1.0000 0.95630  0.46140  0.04520  Biso   1.000  H 
  C107     1.0000 0.51010  0.51210  0.78220  Biso   1.000  C 
  C108     1.0000 0.59550  0.48870  0.73590  Biso   1.000  C 
  H73      1.0000 0.65750  0.50870  0.75120  Biso   1.000  H 
  H74      1.0000 0.51390  0.54780  0.82590  Biso   1.000  H 
  O15      1.0000 0.88180  0.38500  0.57690  Biso   1.000  O 
  O16      1.0000 0.82540  0.46817  0.60700  Biso   1.000  O 
  C109     1.0000 0.06190  0.42290  0.48360  Biso   1.000  C 
  H75      1.0000 0.05310  0.38460  0.49360  Biso   1.000  H 
  C110     1.0000 0.14690  0.44260  0.42760  Biso   1.000  C 
  H76      1.0000 0.19600  0.41770  0.40000  Biso   1.000  H 
  H77      1.0000 0.95630  0.53860  0.54520  Biso   1.000  H 
  H78      1.0000 0.24840  0.55880  0.32820  Biso   1.000  H 
  C111     1.0000 0.51010  0.48790  0.28220  Biso   1.000  C 
  H79      1.0000 0.51390  0.45220  0.32590  Biso   1.000  H 
  C112     1.0000 0.59550  0.51130  0.23590  Biso   1.000  C 
  H80      1.0000 0.65750  0.49130  0.25120  Biso   1.000  H 
