data_image0
_cell_length_a       16.1067
_cell_length_b       16.1067
_cell_length_c       14.4935
_cell_angle_alpha    90
_cell_angle_beta     90
_cell_angle_gamma    90

_symmetry_space_group_name_H-M    "P 1"
_symmetry_int_tables_number       1

loop_
  _symmetry_equiv_pos_as_xyz
  'x, y, z'

loop_
  _atom_site_label
  _atom_site_occupancy
  _atom_site_fract_x
  _atom_site_fract_y
  _atom_site_fract_z
  _atom_site_thermal_displace_type
  _atom_site_B_iso_or_equiv
  _atom_site_type_symbol
  Ag1      1.0000 0.28422  0.72695  0.40884  Biso   1.000  Ag
  N1       1.0000 0.21060  0.63540  0.30220  Biso   1.000  N 
  N2       1.0000 0.18060  0.66500  0.21700  Biso   1.000  N 
  Ag2      1.0000 0.27305  0.71578  0.09116  Biso   1.000  Ag
  N3       1.0000 0.14040  0.75950  0.06960  Biso   1.000  N 
  C1       1.0000 0.08080  0.73330  0.13010  Biso   1.000  C 
  C2       1.0000 0.00160  0.74890  0.10740  Biso   1.000  C 
  H1       1.0000 0.95960  0.73260  0.14970  Biso   1.000  H 
  N4       1.0000 0.97730  0.78660  0.02800  Biso   1.000  N 
  C3       1.0000 0.03700  0.81310  0.97530  Biso   1.000  C 
  C4       1.0000 0.11620  0.80090  0.99390  Biso   1.000  C 
  H2       1.0000 0.15710  0.82190  0.95280  Biso   1.000  H 
  H3       1.0000 0.02290  0.84270  0.92080  Biso   1.000  H 
  C5       1.0000 0.10900  0.69240  0.21350  Biso   1.000  C 
  C6       1.0000 0.04930  0.68830  0.29070  Biso   1.000  C 
  H4       1.0000 0.01390  0.63920  0.28350  Biso   1.000  H 
  H5       1.0000 0.07960  0.68460  0.34920  Biso   1.000  H 
  H6       1.0000 0.01460  0.73830  0.29070  Biso   1.000  H 
  N5       1.0000 0.27510  0.57530  0.01490  Biso   1.000  N 
  C7       1.0000 0.31060  0.51650  0.06790  Biso   1.000  C 
  H7       1.0000 0.33530  0.53140  0.12510  Biso   1.000  H 
  C8       1.0000 0.31110  0.43570  0.03980  Biso   1.000  C 
  H8       1.0000 0.33500  0.39540  0.07960  Biso   1.000  H 
  N6       1.0000 0.28000  0.41050  0.95960  Biso   1.000  N 
  Ag3      1.0000 0.28422  0.27305  0.90884  Biso   1.000  Ag
  N7       1.0000 0.24050  0.14040  0.93040  Biso   1.000  N 
  C9       1.0000 0.19910  0.11620  0.00610  Biso   1.000  C 
  H9       1.0000 0.17810  0.15710  0.04720  Biso   1.000  H 
  C10      1.0000 0.18690  0.03700  0.02470  Biso   1.000  C 
  H10      1.0000 0.15730  0.02290  0.07920  Biso   1.000  H 
  N8       1.0000 0.21340  0.97730  0.97200  Biso   1.000  N 
  C11      1.0000 0.25110  0.00160  0.89260  Biso   1.000  C 
  C12      1.0000 0.26670  0.08080  0.86990  Biso   1.000  C 
  C13      1.0000 0.30760  0.10900  0.78650  Biso   1.000  C 
  N9       1.0000 0.33500  0.18060  0.78300  Biso   1.000  N 
  N10      1.0000 0.36460  0.21060  0.69780  Biso   1.000  N 
  Ag4      1.0000 0.27305  0.28422  0.59116  Biso   1.000  Ag
  N11      1.0000 0.27510  0.42470  0.51490  Biso   1.000  N 
  C14      1.0000 0.31060  0.48350  0.56790  Biso   1.000  C 
  H11      1.0000 0.33530  0.46860  0.62510  Biso   1.000  H 
  C15      1.0000 0.31110  0.56430  0.53980  Biso   1.000  C 
  N12      1.0000 0.28000  0.58950  0.45960  Biso   1.000  N 
  C16      1.0000 0.24780  0.53070  0.40660  Biso   1.000  C 
  C17      1.0000 0.21020  0.55650  0.31540  Biso   1.000  C 
  C18      1.0000 0.17480  0.49180  0.25180  Biso   1.000  C 
  H12      1.0000 0.12370  0.46910  0.27860  Biso   1.000  H 
  H13      1.0000 0.21530  0.44700  0.24340  Biso   1.000  H 
  H14      1.0000 0.16220  0.51700  0.19190  Biso   1.000  H 
  C19      1.0000 0.24370  0.44820  0.43670  Biso   1.000  C 
  H15      1.0000 0.21710  0.40820  0.39870  Biso   1.000  H 
  H16      1.0000 0.33500  0.60460  0.57960  Biso   1.000  H 
  N13      1.0000 0.14040  0.24050  0.56960  Biso   1.000  N 
  C20      1.0000 0.08080  0.26670  0.63010  Biso   1.000  C 
  C21      1.0000 0.00160  0.25110  0.60740  Biso   1.000  C 
  H17      1.0000 0.95960  0.26740  0.64970  Biso   1.000  H 
  N14      1.0000 0.97730  0.21340  0.52800  Biso   1.000  N 
  C22      1.0000 0.03700  0.18690  0.47530  Biso   1.000  C 
  H18      1.0000 0.02290  0.15730  0.42080  Biso   1.000  H 
  C23      1.0000 0.11620  0.19910  0.49390  Biso   1.000  C 
  H19      1.0000 0.15710  0.17810  0.45280  Biso   1.000  H 
  C24      1.0000 0.10900  0.30760  0.71350  Biso   1.000  C 
  N15      1.0000 0.18060  0.33500  0.71700  Biso   1.000  N 
  N16      1.0000 0.21060  0.36460  0.80220  Biso   1.000  N 
  C25      1.0000 0.21020  0.44350  0.81540  Biso   1.000  C 
  C26      1.0000 0.17480  0.50820  0.75180  Biso   1.000  C 
  H20      1.0000 0.16220  0.48300  0.69190  Biso   1.000  H 
  H21      1.0000 0.21530  0.55300  0.74340  Biso   1.000  H 
  H22      1.0000 0.12370  0.53090  0.77860  Biso   1.000  H 
  C27      1.0000 0.24780  0.46930  0.90660  Biso   1.000  C 
  C28      1.0000 0.24370  0.55180  0.93670  Biso   1.000  C 
  H23      1.0000 0.21710  0.59180  0.89870  Biso   1.000  H 
  C29      1.0000 0.04930  0.31170  0.79070  Biso   1.000  C 
  H24      1.0000 0.01460  0.26170  0.79070  Biso   1.000  H 
  H25      1.0000 0.07960  0.31540  0.84920  Biso   1.000  H 
  H26      1.0000 0.01390  0.36080  0.78350  Biso   1.000  H 
  N17      1.0000 0.41050  0.28000  0.54040  Biso   1.000  N 
  C30      1.0000 0.43570  0.31110  0.46020  Biso   1.000  C 
  H27      1.0000 0.39540  0.33500  0.42040  Biso   1.000  H 
  C31      1.0000 0.51650  0.31060  0.43210  Biso   1.000  C 
  H28      1.0000 0.53140  0.33530  0.37490  Biso   1.000  H 
  N18      1.0000 0.57530  0.27510  0.48510  Biso   1.000  N 
  Ag5      1.0000 0.71578  0.27305  0.40884  Biso   1.000  Ag
  N19      1.0000 0.66500  0.18060  0.28300  Biso   1.000  N 
  C32      1.0000 0.69240  0.10900  0.28650  Biso   1.000  C 
  C33      1.0000 0.73330  0.08080  0.36990  Biso   1.000  C 
  C34      1.0000 0.74890  0.00160  0.39260  Biso   1.000  C 
  H29      1.0000 0.73260  0.95960  0.35030  Biso   1.000  H 
  N20      1.0000 0.78660  0.97730  0.47200  Biso   1.000  N 
  C35      1.0000 0.81310  0.03700  0.52470  Biso   1.000  C 
  C36      1.0000 0.80090  0.11620  0.50610  Biso   1.000  C 
  N21      1.0000 0.75950  0.14040  0.43040  Biso   1.000  N 
  H30      1.0000 0.82190  0.15710  0.54720  Biso   1.000  H 
  H31      1.0000 0.84270  0.02290  0.57920  Biso   1.000  H 
  C37      1.0000 0.68830  0.04930  0.20930  Biso   1.000  C 
  H32      1.0000 0.63920  0.01390  0.21650  Biso   1.000  H 
  H33      1.0000 0.68460  0.07960  0.15080  Biso   1.000  H 
  H34      1.0000 0.73830  0.01460  0.20930  Biso   1.000  H 
  N22      1.0000 0.63540  0.21060  0.19780  Biso   1.000  N 
  Ag6      1.0000 0.72695  0.28422  0.09116  Biso   1.000  Ag
  N23      1.0000 0.58950  0.28000  0.04040  Biso   1.000  N 
  C38      1.0000 0.56430  0.31110  0.96020  Biso   1.000  C 
  C39      1.0000 0.48350  0.31060  0.93210  Biso   1.000  C 
  N24      1.0000 0.42470  0.27510  0.98510  Biso   1.000  N 
  C40      1.0000 0.44820  0.24370  0.06330  Biso   1.000  C 
  H35      1.0000 0.40820  0.21710  0.10130  Biso   1.000  H 
  C41      1.0000 0.53070  0.24780  0.09340  Biso   1.000  C 
  C42      1.0000 0.55650  0.21020  0.18460  Biso   1.000  C 
  C43      1.0000 0.49180  0.17480  0.24820  Biso   1.000  C 
  H36      1.0000 0.46910  0.12370  0.22140  Biso   1.000  H 
  H37      1.0000 0.44700  0.21530  0.25660  Biso   1.000  H 
  H38      1.0000 0.51700  0.16220  0.30810  Biso   1.000  H 
  H39      1.0000 0.46860  0.33530  0.87490  Biso   1.000  H 
  H40      1.0000 0.60460  0.33500  0.92040  Biso   1.000  H 
  N25      1.0000 0.72490  0.42470  0.01490  Biso   1.000  N 
  C44      1.0000 0.68940  0.48350  0.06790  Biso   1.000  C 
  H41      1.0000 0.66470  0.46860  0.12510  Biso   1.000  H 
  C45      1.0000 0.68890  0.56430  0.03980  Biso   1.000  C 
  H42      1.0000 0.66500  0.60460  0.07960  Biso   1.000  H 
  N26      1.0000 0.72000  0.58950  0.95960  Biso   1.000  N 
  Ag7      1.0000 0.71578  0.72695  0.90884  Biso   1.000  Ag
  N27      1.0000 0.57530  0.72490  0.98510  Biso   1.000  N 
  C46      1.0000 0.55180  0.75630  0.06330  Biso   1.000  C 
  C47      1.0000 0.46930  0.75220  0.09340  Biso   1.000  C 
  N28      1.0000 0.41050  0.72000  0.04040  Biso   1.000  N 
  C48      1.0000 0.43570  0.68890  0.96020  Biso   1.000  C 
  H43      1.0000 0.39540  0.66500  0.92040  Biso   1.000  H 
  C49      1.0000 0.51650  0.68940  0.93210  Biso   1.000  C 
  H44      1.0000 0.53140  0.66470  0.87490  Biso   1.000  H 
  C50      1.0000 0.44350  0.78980  0.18460  Biso   1.000  C 
  N29      1.0000 0.36460  0.78940  0.19780  Biso   1.000  N 
  N30      1.0000 0.33500  0.81940  0.28300  Biso   1.000  N 
  C51      1.0000 0.30760  0.89100  0.28650  Biso   1.000  C 
  C52      1.0000 0.26670  0.91920  0.36990  Biso   1.000  C 
  C53      1.0000 0.25110  0.99840  0.39260  Biso   1.000  C 
  N31      1.0000 0.21340  0.02270  0.47200  Biso   1.000  N 
  C54      1.0000 0.18690  0.96300  0.52470  Biso   1.000  C 
  H45      1.0000 0.15730  0.97710  0.57920  Biso   1.000  H 
  C55      1.0000 0.19910  0.88380  0.50610  Biso   1.000  C 
  N32      1.0000 0.24050  0.85960  0.43040  Biso   1.000  N 
  H46      1.0000 0.17810  0.84290  0.54720  Biso   1.000  H 
  H47      1.0000 0.26740  0.04040  0.35030  Biso   1.000  H 
  C56      1.0000 0.31170  0.95070  0.20930  Biso   1.000  C 
  H48      1.0000 0.26170  0.98540  0.20930  Biso   1.000  H 
  H49      1.0000 0.31540  0.92040  0.15080  Biso   1.000  H 
  H50      1.0000 0.36080  0.98610  0.21650  Biso   1.000  H 
  C57      1.0000 0.50820  0.82520  0.24820  Biso   1.000  C 
  H51      1.0000 0.48300  0.83780  0.30810  Biso   1.000  H 
  H52      1.0000 0.55300  0.78470  0.25660  Biso   1.000  H 
  H53      1.0000 0.53090  0.87630  0.22140  Biso   1.000  H 
  H54      1.0000 0.59180  0.78290  0.10130  Biso   1.000  H 
  N33      1.0000 0.66500  0.81940  0.78300  Biso   1.000  N 
  C58      1.0000 0.69240  0.89100  0.78650  Biso   1.000  C 
  C59      1.0000 0.73330  0.91920  0.86990  Biso   1.000  C 
  N34      1.0000 0.75950  0.85960  0.93040  Biso   1.000  N 
  C60      1.0000 0.80090  0.88380  0.00610  Biso   1.000  C 
  H55      1.0000 0.82190  0.84290  0.04720  Biso   1.000  H 
  C61      1.0000 0.81310  0.96300  0.02470  Biso   1.000  C 
  H56      1.0000 0.84270  0.97710  0.07920  Biso   1.000  H 
  N35      1.0000 0.78660  0.02270  0.97200  Biso   1.000  N 
  C62      1.0000 0.74890  0.99840  0.89260  Biso   1.000  C 
  H57      1.0000 0.73260  0.04040  0.85030  Biso   1.000  H 
  C63      1.0000 0.68830  0.95070  0.70930  Biso   1.000  C 
  H58      1.0000 0.63920  0.98610  0.71650  Biso   1.000  H 
  H59      1.0000 0.68460  0.92040  0.65080  Biso   1.000  H 
  H60      1.0000 0.73830  0.98540  0.70930  Biso   1.000  H 
  N36      1.0000 0.63540  0.78940  0.69780  Biso   1.000  N 
  Ag8      1.0000 0.72695  0.71578  0.59116  Biso   1.000  Ag
  N37      1.0000 0.72490  0.57530  0.51490  Biso   1.000  N 
  C64      1.0000 0.68940  0.51650  0.56790  Biso   1.000  C 
  H61      1.0000 0.66470  0.53140  0.62510  Biso   1.000  H 
  C65      1.0000 0.68890  0.43570  0.53980  Biso   1.000  C 
  H62      1.0000 0.66500  0.39540  0.57960  Biso   1.000  H 
  N38      1.0000 0.72000  0.41050  0.45960  Biso   1.000  N 
  C66      1.0000 0.75220  0.46930  0.40660  Biso   1.000  C 
  C67      1.0000 0.78980  0.44350  0.31540  Biso   1.000  C 
  N39      1.0000 0.78940  0.36460  0.30220  Biso   1.000  N 
  N40      1.0000 0.81940  0.33500  0.21700  Biso   1.000  N 
  C68      1.0000 0.89100  0.30760  0.21350  Biso   1.000  C 
  C69      1.0000 0.91920  0.26670  0.13010  Biso   1.000  C 
  C70      1.0000 0.99840  0.25110  0.10740  Biso   1.000  C 
  N41      1.0000 0.02270  0.21340  0.02800  Biso   1.000  N 
  C71      1.0000 0.96300  0.18690  0.97530  Biso   1.000  C 
  H63      1.0000 0.97710  0.15730  0.92080  Biso   1.000  H 
  C72      1.0000 0.88380  0.19910  0.99390  Biso   1.000  C 
  H64      1.0000 0.84290  0.17810  0.95280  Biso   1.000  H 
  N42      1.0000 0.85960  0.24050  0.06960  Biso   1.000  N 
  H65      1.0000 0.04040  0.26740  0.14970  Biso   1.000  H 
  C73      1.0000 0.95070  0.31170  0.29070  Biso   1.000  C 
  H66      1.0000 0.98540  0.26170  0.29070  Biso   1.000  H 
  H67      1.0000 0.98610  0.36080  0.28350  Biso   1.000  H 
  H68      1.0000 0.92040  0.31540  0.34920  Biso   1.000  H 
  C74      1.0000 0.82520  0.50820  0.25180  Biso   1.000  C 
  H69      1.0000 0.83780  0.48300  0.19190  Biso   1.000  H 
  H70      1.0000 0.78470  0.55300  0.24340  Biso   1.000  H 
  H71      1.0000 0.87630  0.53090  0.27860  Biso   1.000  H 
  C75      1.0000 0.75630  0.55180  0.43670  Biso   1.000  C 
  H72      1.0000 0.78290  0.59180  0.39870  Biso   1.000  H 
  N43      1.0000 0.58950  0.72000  0.54040  Biso   1.000  N 
  C76      1.0000 0.56430  0.68890  0.46020  Biso   1.000  C 
  C77      1.0000 0.48350  0.68940  0.43210  Biso   1.000  C 
  H73      1.0000 0.46860  0.66470  0.37490  Biso   1.000  H 
  N44      1.0000 0.42470  0.72490  0.48510  Biso   1.000  N 
  C78      1.0000 0.44820  0.75630  0.56330  Biso   1.000  C 
  H74      1.0000 0.40820  0.78290  0.60130  Biso   1.000  H 
  C79      1.0000 0.53070  0.75220  0.59340  Biso   1.000  C 
  C80      1.0000 0.55650  0.78980  0.68460  Biso   1.000  C 
  C81      1.0000 0.49180  0.82520  0.74820  Biso   1.000  C 
  H75      1.0000 0.46910  0.87630  0.72140  Biso   1.000  H 
  H76      1.0000 0.44700  0.78470  0.75660  Biso   1.000  H 
  H77      1.0000 0.51700  0.83780  0.80810  Biso   1.000  H 
  H78      1.0000 0.60460  0.66500  0.42040  Biso   1.000  H 
  N45      1.0000 0.81940  0.66500  0.71700  Biso   1.000  N 
  C82      1.0000 0.89100  0.69240  0.71350  Biso   1.000  C 
  C83      1.0000 0.91920  0.73330  0.63010  Biso   1.000  C 
  C84      1.0000 0.99840  0.74890  0.60740  Biso   1.000  C 
  N46      1.0000 0.02270  0.78660  0.52800  Biso   1.000  N 
  C85      1.0000 0.96300  0.81310  0.47530  Biso   1.000  C 
  C86      1.0000 0.88380  0.80090  0.49390  Biso   1.000  C 
  H79      1.0000 0.84290  0.82190  0.45280  Biso   1.000  H 
  N47      1.0000 0.85960  0.75950  0.56960  Biso   1.000  N 
  H80      1.0000 0.97710  0.84270  0.42080  Biso   1.000  H 
  H81      1.0000 0.04040  0.73260  0.64970  Biso   1.000  H 
  C87      1.0000 0.95070  0.68830  0.79070  Biso   1.000  C 
  H82      1.0000 0.92040  0.68460  0.84920  Biso   1.000  H 
  H83      1.0000 0.98610  0.63920  0.78350  Biso   1.000  H 
  H84      1.0000 0.98540  0.73830  0.79070  Biso   1.000  H 
  N48      1.0000 0.78940  0.63540  0.80220  Biso   1.000  N 
  C88      1.0000 0.78980  0.55650  0.81540  Biso   1.000  C 
  C89      1.0000 0.82520  0.49180  0.75180  Biso   1.000  C 
  H85      1.0000 0.78470  0.44700  0.74340  Biso   1.000  H 
  H86      1.0000 0.87630  0.46910  0.77860  Biso   1.000  H 
  H87      1.0000 0.83780  0.51700  0.69190  Biso   1.000  H 
  C90      1.0000 0.75220  0.53070  0.90660  Biso   1.000  C 
  C91      1.0000 0.75630  0.44820  0.93670  Biso   1.000  C 
  H88      1.0000 0.78290  0.40820  0.89870  Biso   1.000  H 
  C92      1.0000 0.55180  0.24370  0.56330  Biso   1.000  C 
  C93      1.0000 0.46930  0.24780  0.59340  Biso   1.000  C 
  C94      1.0000 0.44350  0.21020  0.68460  Biso   1.000  C 
  C95      1.0000 0.50820  0.17480  0.74820  Biso   1.000  C 
  H89      1.0000 0.48300  0.16220  0.80810  Biso   1.000  H 
  H90      1.0000 0.53090  0.12370  0.72140  Biso   1.000  H 
  H91      1.0000 0.55300  0.21530  0.75660  Biso   1.000  H 
  H92      1.0000 0.59180  0.21710  0.60130  Biso   1.000  H 
  C96      1.0000 0.31170  0.04930  0.70930  Biso   1.000  C 
  H93      1.0000 0.26170  0.01460  0.70930  Biso   1.000  H 
  H94      1.0000 0.36080  0.01390  0.71650  Biso   1.000  H 
  H95      1.0000 0.31540  0.07960  0.65080  Biso   1.000  H 
  H96      1.0000 0.26740  0.95960  0.85030  Biso   1.000  H 
