data_image0
_cell_length_a       12.3642
_cell_length_b       10.5636
_cell_length_c       16.322
_cell_angle_alpha    90
_cell_angle_beta     90.054
_cell_angle_gamma    90

_symmetry_space_group_name_H-M    "P 1"
_symmetry_int_tables_number       1

loop_
  _symmetry_equiv_pos_as_xyz
  'x, y, z'

loop_
  _atom_site_label
  _atom_site_occupancy
  _atom_site_fract_x
  _atom_site_fract_y
  _atom_site_fract_z
  _atom_site_thermal_displace_type
  _atom_site_B_iso_or_equiv
  _atom_site_type_symbol
  Cu1      1.0000 0.45052  0.13070  0.99015  Biso   1.000  Cu
  N1       1.0000 0.42552  0.23598  0.89158  Biso   1.000  N 
  C1       1.0000 0.49261  0.32820  0.86803  Biso   1.000  C 
  C2       1.0000 0.48035  0.39530  0.79550  Biso   1.000  C 
  C3       1.0000 0.39374  0.36482  0.74563  Biso   1.000  C 
  C4       1.0000 0.32332  0.26850  0.76911  Biso   1.000  C 
  H1       1.0000 0.26380  0.24540  0.73540  Biso   1.000  H 
  C5       1.0000 0.34197  0.20760  0.84240  Biso   1.000  C 
  H2       1.0000 0.29350  0.14260  0.85880  Biso   1.000  H 
  S1       1.0000 0.36348  0.43622  0.65026  Biso   1.000  S 
  S2       1.0000 0.46986  0.58108  0.63871  Biso   1.000  S 
  C6       1.0000 0.58578  0.51194  0.59269  Biso   1.000  C 
  C7       1.0000 0.60325  0.38280  0.58341  Biso   1.000  C 
  H3       1.0000 0.55090  0.32310  0.60140  Biso   1.000  H 
  C8       1.0000 0.69874  0.34310  0.54733  Biso   1.000  C 
  H4       1.0000 0.71040  0.25480  0.54070  Biso   1.000  H 
  N2       1.0000 0.77558  0.42303  0.52123  Biso   1.000  N 
  C9       1.0000 0.75713  0.54790  0.53091  Biso   1.000  C 
  H5       1.0000 0.81110  0.60570  0.51310  Biso   1.000  H 
  C10      1.0000 0.66399  0.59622  0.56531  Biso   1.000  C 
  H6       1.0000 0.65360  0.68500  0.57010  Biso   1.000  H 
  Cu2      1.0000 0.95052  0.36930  0.49015  Biso   1.000  Cu
  N3       1.0000 0.92552  0.26402  0.39158  Biso   1.000  N 
  C11      1.0000 0.99261  0.17180  0.36803  Biso   1.000  C 
  C12      1.0000 0.98035  0.10470  0.29550  Biso   1.000  C 
  C13      1.0000 0.89374  0.13518  0.24563  Biso   1.000  C 
  C14      1.0000 0.82332  0.23150  0.26911  Biso   1.000  C 
  H7       1.0000 0.76380  0.25460  0.23540  Biso   1.000  H 
  C15      1.0000 0.84197  0.29240  0.34240  Biso   1.000  C 
  H8       1.0000 0.79350  0.35740  0.35880  Biso   1.000  H 
  S3       1.0000 0.86348  0.06378  0.15026  Biso   1.000  S 
  S4       1.0000 0.96986  0.91892  0.13871  Biso   1.000  S 
  C16      1.0000 0.08578  0.98806  0.09269  Biso   1.000  C 
  C17      1.0000 0.16399  0.90378  0.06531  Biso   1.000  C 
  H9       1.0000 0.15360  0.81500  0.07010  Biso   1.000  H 
  C18      1.0000 0.25713  0.95210  0.03091  Biso   1.000  C 
  H10      1.0000 0.31110  0.89430  0.01310  Biso   1.000  H 
  N4       1.0000 0.27558  0.07697  0.02123  Biso   1.000  N 
  C19      1.0000 0.19874  0.15690  0.04733  Biso   1.000  C 
  C20      1.0000 0.10325  0.11720  0.08341  Biso   1.000  C 
  H11      1.0000 0.05090  0.17690  0.10140  Biso   1.000  H 
  H12      1.0000 0.21040  0.24520  0.04070  Biso   1.000  H 
  H13      1.0000 0.02990  0.03990  0.28060  Biso   1.000  H 
  H14      1.0000 0.05180  0.15110  0.40270  Biso   1.000  H 
  O1       1.0000 0.98985  0.52048  0.42712  Biso   1.000  O 
  C21      1.0000 0.95967  0.58060  0.35359  Biso   1.000  C 
  H15      1.0000 0.96960  0.52230  0.30670  Biso   1.000  H 
  H16      1.0000 0.88270  0.60600  0.35580  Biso   1.000  H 
  C22      1.0000 0.03147  0.69670  0.34370  Biso   1.000  C 
  H17      1.0000 0.00250  0.75230  0.30010  Biso   1.000  H 
  H18      1.0000 0.10560  0.67070  0.32820  Biso   1.000  H 
  N5       1.0000 0.03337  0.76519  0.42308  Biso   1.000  N 
  H19      1.0000 0.09060  0.82080  0.42490  Biso   1.000  H 
  H20      1.0000 0.97020  0.80980  0.43050  Biso   1.000  H 
  Cu3      1.0000 0.04948  0.63070  0.50985  Biso   1.000  Cu
  N6       1.0000 0.22442  0.57697  0.47877  Biso   1.000  N 
  C23      1.0000 0.24287  0.45210  0.46909  Biso   1.000  C 
  H21      1.0000 0.18890  0.39430  0.48690  Biso   1.000  H 
  C24      1.0000 0.33601  0.40378  0.43469  Biso   1.000  C 
  H22      1.0000 0.34640  0.31500  0.42990  Biso   1.000  H 
  C25      1.0000 0.41422  0.48806  0.40731  Biso   1.000  C 
  C26      1.0000 0.39675  0.61720  0.41659  Biso   1.000  C 
  H23      1.0000 0.44910  0.67690  0.39860  Biso   1.000  H 
  C27      1.0000 0.30126  0.65690  0.45267  Biso   1.000  C 
  H24      1.0000 0.28960  0.74520  0.45930  Biso   1.000  H 
  S5       1.0000 0.53014  0.41892  0.36129  Biso   1.000  S 
  S6       1.0000 0.63652  0.56378  0.34974  Biso   1.000  S 
  C28      1.0000 0.60626  0.63518  0.25437  Biso   1.000  C 
  C29      1.0000 0.67668  0.73150  0.23089  Biso   1.000  C 
  C30      1.0000 0.65803  0.79240  0.15760  Biso   1.000  C 
  H25      1.0000 0.70650  0.85740  0.14120  Biso   1.000  H 
  N7       1.0000 0.57448  0.76402  0.10842  Biso   1.000  N 
  C31      1.0000 0.50739  0.67180  0.13197  Biso   1.000  C 
  H26      1.0000 0.44820  0.65110  0.09730  Biso   1.000  H 
  C32      1.0000 0.51965  0.60470  0.20450  Biso   1.000  C 
  H27      1.0000 0.47010  0.53990  0.21940  Biso   1.000  H 
  Cu4      1.0000 0.54948  0.86930  0.00985  Biso   1.000  Cu
  O2       1.0000 0.48985  0.97952  0.92712  Biso   1.000  O 
  C33      1.0000 0.45967  0.91940  0.85359  Biso   1.000  C 
  H28      1.0000 0.38270  0.89400  0.85580  Biso   1.000  H 
  H29      1.0000 0.46960  0.97770  0.80670  Biso   1.000  H 
  C34      1.0000 0.53147  0.80330  0.84370  Biso   1.000  C 
  H30      1.0000 0.50250  0.74770  0.80010  Biso   1.000  H 
  H31      1.0000 0.60560  0.82930  0.82820  Biso   1.000  H 
  N8       1.0000 0.53337  0.73481  0.92308  Biso   1.000  N 
  H32      1.0000 0.47020  0.69020  0.93050  Biso   1.000  H 
  H33      1.0000 0.59060  0.67920  0.92490  Biso   1.000  H 
  N9       1.0000 0.72442  0.92303  0.97877  Biso   1.000  N 
  C35      1.0000 0.80126  0.84310  0.95267  Biso   1.000  C 
  C36      1.0000 0.89675  0.88280  0.91659  Biso   1.000  C 
  H34      1.0000 0.94910  0.82310  0.89860  Biso   1.000  H 
  C37      1.0000 0.91422  0.01194  0.90731  Biso   1.000  C 
  C38      1.0000 0.83601  0.09622  0.93469  Biso   1.000  C 
  H35      1.0000 0.84640  0.18500  0.92990  Biso   1.000  H 
  C39      1.0000 0.74287  0.04790  0.96909  Biso   1.000  C 
  H36      1.0000 0.68890  0.10570  0.98690  Biso   1.000  H 
  S7       1.0000 0.03014  0.08108  0.86129  Biso   1.000  S 
  S8       1.0000 0.13652  0.93622  0.84974  Biso   1.000  S 
  C40      1.0000 0.10626  0.86482  0.75437  Biso   1.000  C 
  C41      1.0000 0.17668  0.76850  0.73089  Biso   1.000  C 
  C42      1.0000 0.15803  0.70760  0.65760  Biso   1.000  C 
  H37      1.0000 0.20650  0.64260  0.64120  Biso   1.000  H 
  N10      1.0000 0.07448  0.73598  0.60842  Biso   1.000  N 
  C43      1.0000 0.00739  0.82820  0.63197  Biso   1.000  C 
  C44      1.0000 0.01965  0.89530  0.70450  Biso   1.000  C 
  H38      1.0000 0.97010  0.96010  0.71940  Biso   1.000  H 
  H39      1.0000 0.94820  0.84890  0.59730  Biso   1.000  H 
  H40      1.0000 0.23620  0.74540  0.76460  Biso   1.000  H 
  H41      1.0000 0.78960  0.75480  0.95930  Biso   1.000  H 
  O3       1.0000 0.51015  0.02048  0.07288  Biso   1.000  O 
  C45      1.0000 0.54033  0.08060  0.14641  Biso   1.000  C 
  H42      1.0000 0.53040  0.02230  0.19330  Biso   1.000  H 
  H43      1.0000 0.61730  0.10600  0.14420  Biso   1.000  H 
  C46      1.0000 0.46853  0.19670  0.15630  Biso   1.000  C 
  H44      1.0000 0.39440  0.17070  0.17180  Biso   1.000  H 
  H45      1.0000 0.49750  0.25230  0.19990  Biso   1.000  H 
  N11      1.0000 0.46663  0.26519  0.07692  Biso   1.000  N 
  H46      1.0000 0.40940  0.32080  0.07510  Biso   1.000  H 
  H47      1.0000 0.52980  0.30980  0.06950  Biso   1.000  H 
  H48      1.0000 0.73620  0.75460  0.26460  Biso   1.000  H 
  O4       1.0000 0.01015  0.47952  0.57288  Biso   1.000  O 
  C47      1.0000 0.04033  0.41940  0.64641  Biso   1.000  C 
  H49      1.0000 0.11730  0.39400  0.64420  Biso   1.000  H 
  H50      1.0000 0.03040  0.47770  0.69330  Biso   1.000  H 
  C48      1.0000 0.96853  0.30330  0.65630  Biso   1.000  C 
  H51      1.0000 0.89440  0.32930  0.67180  Biso   1.000  H 
  H52      1.0000 0.99750  0.24770  0.69990  Biso   1.000  H 
  N12      1.0000 0.96663  0.23481  0.57692  Biso   1.000  N 
  H53      1.0000 0.90940  0.17920  0.57510  Biso   1.000  H 
  H54      1.0000 0.02980  0.19020  0.56950  Biso   1.000  H 
  H55      1.0000 0.52990  0.46010  0.78060  Biso   1.000  H 
  H56      1.0000 0.55180  0.34890  0.90270  Biso   1.000  H 
