data_image0
_cell_length_a       11.4604
_cell_length_b       16.882
_cell_length_c       9.3032
_cell_angle_alpha    90
_cell_angle_beta     106.605
_cell_angle_gamma    90

_symmetry_space_group_name_H-M    "P 1"
_symmetry_int_tables_number       1

loop_
  _symmetry_equiv_pos_as_xyz
  'x, y, z'

loop_
  _atom_site_label
  _atom_site_occupancy
  _atom_site_fract_x
  _atom_site_fract_y
  _atom_site_fract_z
  _atom_site_thermal_displace_type
  _atom_site_B_iso_or_equiv
  _atom_site_type_symbol
  Ag1      1.0000 0.11896  0.19945  0.88128  Biso   1.000  Ag
  N1       1.0000 0.24970  0.11774  0.99440  Biso   1.000  N 
  C1       1.0000 0.25960  0.03982  0.95830  Biso   1.000  C 
  H1       1.0000 0.20300  0.01150  0.88470  Biso   1.000  H 
  C2       1.0000 0.36580  0.01104  0.04780  Biso   1.000  C 
  N2       1.0000 0.42370  0.07044  0.14200  Biso   1.000  N 
  C3       1.0000 0.35120  0.13291  0.10380  Biso   1.000  C 
  H2       1.0000 0.36940  0.18230  0.14890  Biso   1.000  H 
  Ag2      1.0000 0.59122  0.06565  0.30344  Biso   1.000  Ag
  N3       1.0000 0.75980  0.06801  0.46290  Biso   1.000  N 
  C4       1.0000 0.86340  0.09331  0.44220  Biso   1.000  C 
  H3       1.0000 0.86810  0.11540  0.35250  Biso   1.000  H 
  N4       1.0000 0.95950  0.08433  0.56060  Biso   1.000  N 
  C5       1.0000 0.91380  0.05014  0.66600  Biso   1.000  C 
  H4       1.0000 0.95890  0.03580  0.76240  Biso   1.000  H 
  C6       1.0000 0.79160  0.04050  0.60720  Biso   1.000  C 
  H5       1.0000 0.73890  0.01900  0.65640  Biso   1.000  H 
  Ag3      1.0000 0.13804  0.11943  0.58182  Biso   1.000  Ag
  N5       1.0000 0.31870  0.15129  0.60720  Biso   1.000  N 
  C7       1.0000 0.37450  0.16230  0.49780  Biso   1.000  C 
  H6       1.0000 0.33680  0.15910  0.39520  Biso   1.000  H 
  C8       1.0000 0.49340  0.17850  0.56230  Biso   1.000  C 
  H7       1.0000 0.55120  0.18830  0.51170  Biso   1.000  H 
  N6       1.0000 0.51440  0.17815  0.71430  Biso   1.000  N 
  C9       1.0000 0.40670  0.16110  0.73440  Biso   1.000  C 
  H8       1.0000 0.39430  0.15640  0.82850  Biso   1.000  H 
  Ag4      1.0000 0.67867  0.18671  0.87984  Biso   1.000  Ag
  N7       1.0000 0.84190  0.18633  0.04720  Biso   1.000  N 
  C10      1.0000 0.88710  0.23970  0.15290  Biso   1.000  C 
  H9       1.0000 0.84420  0.28430  0.16730  Biso   1.000  H 
  N8       1.0000 0.99990  0.22359  0.23650  Biso   1.000  N 
  C11      1.0000 0.02940  0.15460  0.17790  Biso   1.000  C 
  H10      1.0000 0.10330  0.12800  0.21150  Biso   1.000  H 
  C12      1.0000 0.93350  0.13160  0.06290  Biso   1.000  C 
  H11      1.0000 0.93010  0.08640  0.00460  Biso   1.000  H 
  Ag5      1.0000 0.11896  0.30055  0.38128  Biso   1.000  Ag
  N9       1.0000 0.24970  0.38226  0.49440  Biso   1.000  N 
  C13      1.0000 0.25960  0.46018  0.45830  Biso   1.000  C 
  C14      1.0000 0.36580  0.48896  0.54780  Biso   1.000  C 
  H12      1.0000 0.39460  0.54030  0.54590  Biso   1.000  H 
  N10      1.0000 0.42370  0.42956  0.64200  Biso   1.000  N 
  C15      1.0000 0.35120  0.36709  0.60380  Biso   1.000  C 
  H13      1.0000 0.36940  0.31770  0.64890  Biso   1.000  H 
  Ag6      1.0000 0.59122  0.43435  0.80344  Biso   1.000  Ag
  N11      1.0000 0.75980  0.43199  0.96290  Biso   1.000  N 
  C16      1.0000 0.86340  0.40669  0.94220  Biso   1.000  C 
  H14      1.0000 0.86810  0.38460  0.85250  Biso   1.000  H 
  N12      1.0000 0.95950  0.41567  0.06060  Biso   1.000  N 
  C17      1.0000 0.91380  0.44986  0.16600  Biso   1.000  C 
  H15      1.0000 0.95890  0.46420  0.26240  Biso   1.000  H 
  C18      1.0000 0.79160  0.45950  0.10720  Biso   1.000  C 
  H16      1.0000 0.73890  0.48100  0.15640  Biso   1.000  H 
  Ag7      1.0000 0.13804  0.38057  0.08182  Biso   1.000  Ag
  N13      1.0000 0.31870  0.34871  0.10720  Biso   1.000  N 
  C19      1.0000 0.40670  0.33890  0.23440  Biso   1.000  C 
  H17      1.0000 0.39430  0.34360  0.32850  Biso   1.000  H 
  N14      1.0000 0.51440  0.32185  0.21430  Biso   1.000  N 
  C20      1.0000 0.49340  0.32150  0.06230  Biso   1.000  C 
  H18      1.0000 0.55120  0.31170  0.01170  Biso   1.000  H 
  C21      1.0000 0.37450  0.33770  0.99780  Biso   1.000  C 
  H19      1.0000 0.33680  0.34090  0.89520  Biso   1.000  H 
  Ag8      1.0000 0.67867  0.31329  0.37984  Biso   1.000  Ag
  N15      1.0000 0.84190  0.31367  0.54720  Biso   1.000  N 
  C22      1.0000 0.88710  0.26030  0.65290  Biso   1.000  C 
  H20      1.0000 0.84420  0.21570  0.66730  Biso   1.000  H 
  N16      1.0000 0.99990  0.27641  0.73650  Biso   1.000  N 
  C23      1.0000 0.02940  0.34540  0.67790  Biso   1.000  C 
  H21      1.0000 0.10330  0.37200  0.71150  Biso   1.000  H 
  C24      1.0000 0.93350  0.36840  0.56290  Biso   1.000  C 
  H22      1.0000 0.93010  0.41360  0.50460  Biso   1.000  H 
  H23      1.0000 0.20300  0.48850  0.38470  Biso   1.000  H 
  H24      1.0000 0.39460  0.95970  0.04590  Biso   1.000  H 
