data_image0
_cell_length_a       8.9314
_cell_length_b       12.8564
_cell_length_c       20.9226
_cell_angle_alpha    72.54
_cell_angle_beta     88.95
_cell_angle_gamma    74.408

_symmetry_space_group_name_H-M    "P 1"
_symmetry_int_tables_number       1

loop_
  _symmetry_equiv_pos_as_xyz
  'x, y, z'

loop_
  _atom_site_label
  _atom_site_occupancy
  _atom_site_fract_x
  _atom_site_fract_y
  _atom_site_fract_z
  _atom_site_thermal_displace_type
  _atom_site_B_iso_or_equiv
  _atom_site_type_symbol
  Hg1      1.0000 0.88883  0.26391  0.71260  Biso   1.000  Hg
  Cl1      1.0000 0.70225  0.32103  0.78597  Biso   1.000  Cl
  Cl2      1.0000 0.05250  0.23765  0.62503  Biso   1.000  Cl
  N1       1.0000 0.04270  0.40060  0.73160  Biso   1.000  N 
  C1       1.0000 0.19260  0.38400  0.72030  Biso   1.000  C 
  H1       1.0000 0.24240  0.32070  0.70740  Biso   1.000  H 
  C2       1.0000 0.27890  0.45500  0.72660  Biso   1.000  C 
  H2       1.0000 0.38430  0.43950  0.71880  Biso   1.000  H 
  C3       1.0000 0.20500  0.54920  0.74470  Biso   1.000  C 
  C4       1.0000 0.28620  0.63260  0.75270  Biso   1.000  C 
  O1       1.0000 0.22560  0.71330  0.76980  Biso   1.000  O 
  O2       1.0000 0.43650  0.60420  0.73780  Biso   1.000  O 
  C5       1.0000 0.52780  0.67500  0.74540  Biso   1.000  C 
  C6       1.0000 0.56170  0.74850  0.68780  Biso   1.000  C 
  C7       1.0000 0.66170  0.81210  0.69530  Biso   1.000  C 
  H3       1.0000 0.68730  0.86210  0.65720  Biso   1.000  H 
  C8       1.0000 0.72310  0.80290  0.75700  Biso   1.000  C 
  C9       1.0000 0.83020  0.87280  0.76310  Biso   1.000  C 
  H4       1.0000 0.84430  0.91920  0.71920  Biso   1.000  H 
  H5       1.0000 0.78530  0.92030  0.79010  Biso   1.000  H 
  H6       1.0000 0.92930  0.82330  0.78380  Biso   1.000  H 
  C10      1.0000 0.68510  0.72750  0.81310  Biso   1.000  C 
  H7       1.0000 0.72570  0.72090  0.85520  Biso   1.000  H 
  C11      1.0000 0.58820  0.66130  0.80870  Biso   1.000  C 
  C12      1.0000 0.54800  0.57510  0.86910  Biso   1.000  C 
  H8       1.0000 0.58200  0.50090  0.86250  Biso   1.000  H 
  H9       1.0000 0.43560  0.59410  0.87090  Biso   1.000  H 
  C13      1.0000 0.61890  0.56750  0.93550  Biso   1.000  C 
  C14      1.0000 0.56360  0.65330  0.96470  Biso   1.000  C 
  C15      1.0000 0.62810  0.64770  0.02500  Biso   1.000  C 
  H10      1.0000 0.59140  0.70570  0.04410  Biso   1.000  H 
  C16      1.0000 0.74910  0.55360  0.05680  Biso   1.000  C 
  C17      1.0000 0.80510  0.46740  0.03080  Biso   1.000  C 
  C18      1.0000 0.93610  0.36540  0.06680  Biso   1.000  C 
  H11      1.0000 0.96160  0.31450  0.04030  Biso   1.000  H 
  H12      1.0000 0.90440  0.32730  0.10960  Biso   1.000  H 
  H13      1.0000 0.02590  0.38940  0.07360  Biso   1.000  H 
  C19      1.0000 0.74010  0.47600  0.96940  Biso   1.000  C 
  H14      1.0000 0.77920  0.41830  0.95030  Biso   1.000  H 
  H15      1.0000 0.79370  0.54950  0.09760  Biso   1.000  H 
  O3       1.0000 0.44670  0.74620  0.92560  Biso   1.000  O 
  C20      1.0000 0.32930  0.80940  0.95030  Biso   1.000  C 
  O4       1.0000 0.31020  0.79190  0.00870  Biso   1.000  O 
  C21      1.0000 0.22810  0.90240  0.89650  Biso   1.000  C 
  C22      1.0000 0.24090  0.91230  0.82930  Biso   1.000  C 
  H16      1.0000 0.31460  0.85840  0.81550  Biso   1.000  H 
  C23      1.0000 0.14240  0.00370  0.78340  Biso   1.000  C 
  H17      1.0000 0.14950  0.00830  0.73830  Biso   1.000  H 
  N2       1.0000 0.03730  0.08640  0.79870  Biso   1.000  N 
  C24      1.0000 0.02770  0.07670  0.86290  Biso   1.000  C 
  H18      1.0000 0.95560  0.13350  0.87500  Biso   1.000  H 
  C25      1.0000 0.11890  0.98650  0.91350  Biso   1.000  C 
  H19      1.0000 0.10670  0.98270  0.95830  Biso   1.000  H 
  C26      1.0000 0.49540  0.76080  0.61900  Biso   1.000  C 
  H20      1.0000 0.52620  0.68710  0.61170  Biso   1.000  H 
  H21      1.0000 0.54190  0.81090  0.58550  Biso   1.000  H 
  C27      1.0000 0.32130  0.80600  0.60780  Biso   1.000  C 
  C28      1.0000 0.24330  0.91180  0.61000  Biso   1.000  C 
  C29      1.0000 0.08450  0.95710  0.59710  Biso   1.000  C 
  C30      1.0000 0.00010  0.88970  0.58200  Biso   1.000  C 
  C31      1.0000 0.06900  0.78300  0.58010  Biso   1.000  C 
  C32      1.0000 0.22990  0.74210  0.59240  Biso   1.000  C 
  H22      1.0000 0.27880  0.66960  0.59050  Biso   1.000  H 
  C33      1.0000 0.97680  0.71010  0.56590  Biso   1.000  C 
  H23      1.0000 0.99210  0.64220  0.60320  Biso   1.000  H 
  H24      1.0000 0.86830  0.75080  0.55920  Biso   1.000  H 
  H25      1.0000 0.01090  0.69050  0.52620  Biso   1.000  H 
  H26      1.0000 0.89290  0.91890  0.57300  Biso   1.000  H 
  H27      1.0000 0.03550  0.03000  0.59830  Biso   1.000  H 
  O5       1.0000 0.33010  0.97640  0.62867  Biso   1.000  O 
  C34      1.0000 0.38010  0.05130  0.57880  Biso   1.000  C 
  O6       1.0000 0.35170  0.06750  0.52110  Biso   1.000  O 
  C35      1.0000 0.48270  0.10420  0.60680  Biso   1.000  C 
  C36      1.0000 0.46690  0.11980  0.66910  Biso   1.000  C 
  H28      1.0000 0.38930  0.09840  0.69580  Biso   1.000  H 
  C37      1.0000 0.56790  0.16790  0.69120  Biso   1.000  C 
  H29      1.0000 0.55560  0.17970  0.73290  Biso   1.000  H 
  N3       1.0000 0.68250  0.19810  0.65520  Biso   1.000  N 
  C38      1.0000 0.69780  0.18140  0.59590  Biso   1.000  C 
  H30      1.0000 0.77920  0.20050  0.57100  Biso   1.000  H 
  C39      1.0000 0.59950  0.13750  0.56920  Biso   1.000  C 
  H31      1.0000 0.61130  0.13020  0.52640  Biso   1.000  H 
  C40      1.0000 0.04900  0.56800  0.75520  Biso   1.000  C 
  C41      1.0000 0.97330  0.49070  0.74930  Biso   1.000  C 
  H32      1.0000 0.86870  0.50280  0.75820  Biso   1.000  H 
  H33      1.0000 0.99500  0.63230  0.76620  Biso   1.000  H 
