data_image0
_cell_length_a       12.7188
_cell_length_b       8.3691
_cell_length_c       14.2281
_cell_angle_alpha    90
_cell_angle_beta     100.725
_cell_angle_gamma    90

_symmetry_space_group_name_H-M    "P 1"
_symmetry_int_tables_number       1

loop_
  _symmetry_equiv_pos_as_xyz
  'x, y, z'

loop_
  _atom_site_label
  _atom_site_occupancy
  _atom_site_fract_x
  _atom_site_fract_y
  _atom_site_fract_z
  _atom_site_thermal_displace_type
  _atom_site_B_iso_or_equiv
  _atom_site_type_symbol
  Fe1      1.0000 0.00000  0.00000  0.50000  Biso   1.000  Fe
  N1       1.0000 0.88437  0.96052  0.37090  Biso   1.000  N 
  C1       1.0000 0.83975  0.94370  0.29396  Biso   1.000  C 
  N2       1.0000 0.78182  0.92300  0.20860  Biso   1.000  N 
  C2       1.0000 0.83262  0.91690  0.13687  Biso   1.000  C 
  N3       1.0000 0.87219  0.90792  0.07054  Biso   1.000  N 
  Fe2      1.0000 0.00000  0.00000  0.00000  Biso   1.000  Fe
  N4       1.0000 0.03029  0.76491  0.94821  Biso   1.000  N 
  C3       1.0000 0.11759  0.66980  0.98178  Biso   1.000  C 
  C4       1.0000 0.11114  0.53240  0.93028  Biso   1.000  C 
  H1       1.0000 0.16080  0.44640  0.93860  Biso   1.000  H 
  N5       1.0000 0.01814  0.54303  0.86369  Biso   1.000  N 
  C5       1.0000 0.97523  0.41882  0.79484  Biso   1.000  C 
  H2       1.0000 0.98760  0.31320  0.82630  Biso   1.000  H 
  H3       1.0000 0.89690  0.43390  0.77590  Biso   1.000  H 
  C6       1.0000 0.02477  0.41882  0.70516  Biso   1.000  C 
  H4       1.0000 0.10310  0.43390  0.72410  Biso   1.000  H 
  H5       1.0000 0.01240  0.31320  0.67370  Biso   1.000  H 
  N6       1.0000 0.98186  0.54303  0.63631  Biso   1.000  N 
  C7       1.0000 0.88886  0.53240  0.56972  Biso   1.000  C 
  H6       1.0000 0.83920  0.44640  0.56140  Biso   1.000  H 
  C8       1.0000 0.88241  0.66980  0.51822  Biso   1.000  C 
  H7       1.0000 0.82610  0.69640  0.46680  Biso   1.000  H 
  N7       1.0000 0.96971  0.76491  0.55179  Biso   1.000  N 
  C9       1.0000 0.02764  0.68397  0.62278  Biso   1.000  C 
  H8       1.0000 0.09330  0.72060  0.65960  Biso   1.000  H 
  C10      1.0000 0.97236  0.68397  0.87722  Biso   1.000  C 
  H9       1.0000 0.90670  0.72060  0.84040  Biso   1.000  H 
  H10      1.0000 0.17390  0.69640  0.03320  Biso   1.000  H 
  N8       1.0000 0.96971  0.23509  0.05179  Biso   1.000  N 
  C11      1.0000 0.88241  0.33020  0.01822  Biso   1.000  C 
  H11      1.0000 0.82610  0.30360  0.96680  Biso   1.000  H 
  C12      1.0000 0.88886  0.46760  0.06972  Biso   1.000  C 
  H12      1.0000 0.83920  0.55360  0.06140  Biso   1.000  H 
  N9       1.0000 0.98186  0.45697  0.13631  Biso   1.000  N 
  C13      1.0000 0.02764  0.31603  0.12278  Biso   1.000  C 
  H13      1.0000 0.09330  0.27940  0.15960  Biso   1.000  H 
  C14      1.0000 0.02477  0.58118  0.20516  Biso   1.000  C 
  H14      1.0000 0.01240  0.68680  0.17370  Biso   1.000  H 
  H15      1.0000 0.10310  0.56610  0.22410  Biso   1.000  H 
  C15      1.0000 0.97523  0.58118  0.29484  Biso   1.000  C 
  H16      1.0000 0.89690  0.56610  0.27590  Biso   1.000  H 
  H17      1.0000 0.98760  0.68680  0.32630  Biso   1.000  H 
  N10      1.0000 0.01814  0.45697  0.36369  Biso   1.000  N 
  C16      1.0000 0.11114  0.46760  0.43028  Biso   1.000  C 
  C17      1.0000 0.11759  0.33020  0.48178  Biso   1.000  C 
  H18      1.0000 0.17390  0.30360  0.53320  Biso   1.000  H 
  N11      1.0000 0.03029  0.23509  0.44821  Biso   1.000  N 
  C18      1.0000 0.97236  0.31603  0.37722  Biso   1.000  C 
  H19      1.0000 0.90670  0.27940  0.34040  Biso   1.000  H 
  H20      1.0000 0.16080  0.55360  0.43860  Biso   1.000  H 
  N12      1.0000 0.12781  0.09208  0.92946  Biso   1.000  N 
  C19      1.0000 0.16738  0.08310  0.86313  Biso   1.000  C 
  N13      1.0000 0.21818  0.07700  0.79140  Biso   1.000  N 
  C20      1.0000 0.16025  0.05630  0.70604  Biso   1.000  C 
  N14      1.0000 0.11563  0.03948  0.62910  Biso   1.000  N 
  N15      1.0000 0.88437  0.03948  0.87090  Biso   1.000  N 
  C21      1.0000 0.83975  0.05630  0.79396  Biso   1.000  C 
  N16      1.0000 0.78182  0.07700  0.70860  Biso   1.000  N 
  C22      1.0000 0.83262  0.08310  0.63687  Biso   1.000  C 
  N17      1.0000 0.87219  0.09208  0.57054  Biso   1.000  N 
  N18      1.0000 0.11563  0.96052  0.12910  Biso   1.000  N 
  C23      1.0000 0.16025  0.94370  0.20604  Biso   1.000  C 
  N19      1.0000 0.21818  0.92300  0.29140  Biso   1.000  N 
  C24      1.0000 0.16738  0.91690  0.36313  Biso   1.000  C 
  N20      1.0000 0.12781  0.90792  0.42946  Biso   1.000  N 
