data_image0
_cell_length_a       10.1917
_cell_length_b       12.5933
_cell_length_c       31.577
_cell_angle_alpha    90
_cell_angle_beta     90.619
_cell_angle_gamma    90

_symmetry_space_group_name_H-M    "P 1"
_symmetry_int_tables_number       1

loop_
  _symmetry_equiv_pos_as_xyz
  'x, y, z'

loop_
  _atom_site_label
  _atom_site_occupancy
  _atom_site_fract_x
  _atom_site_fract_y
  _atom_site_fract_z
  _atom_site_thermal_displace_type
  _atom_site_B_iso_or_equiv
  _atom_site_type_symbol
  S1       1.0000 0.34700  0.88300  0.46559  Biso   1.000  S 
  C1       1.0000 0.48860  0.86040  0.49700  Biso   1.000  C 
  C2       1.0000 0.48680  0.85050  0.53830  Biso   1.000  C 
  S2       1.0000 0.34040  0.85050  0.56889  Biso   1.000  S 
  C3       1.0000 0.41280  0.80590  0.61620  Biso   1.000  C 
  C4       1.0000 0.54510  0.79450  0.61730  Biso   1.000  C 
  C5       1.0000 0.63930  0.77190  0.65220  Biso   1.000  C 
  C6       1.0000 0.73710  0.69420  0.64710  Biso   1.000  C 
  H1       1.0000 0.74080  0.65450  0.62240  Biso   1.000  H 
  C7       1.0000 0.82730  0.67740  0.67920  Biso   1.000  C 
  H2       1.0000 0.89450  0.62900  0.67470  Biso   1.000  H 
  N1       1.0000 0.82350  0.72610  0.71580  Biso   1.000  N 
  C8       1.0000 0.72520  0.79600  0.72110  Biso   1.000  C 
  H3       1.0000 0.72070  0.83060  0.74710  Biso   1.000  H 
  C9       1.0000 0.63080  0.82040  0.69120  Biso   1.000  C 
  H4       1.0000 0.56360  0.86790  0.69710  Biso   1.000  H 
  Mn1      1.0000 0.98586  0.69946  0.76492  Biso   1.000  Mn
  N2       1.0000 0.14050  0.73440  0.71390  Biso   1.000  N 
  C10      1.0000 0.11800  0.81930  0.68630  Biso   1.000  C 
  C11      1.0000 0.20560  0.84070  0.65460  Biso   1.000  C 
  H5       1.0000 0.18910  0.89600  0.63580  Biso   1.000  H 
  C12      1.0000 0.32140  0.77860  0.65050  Biso   1.000  C 
  C13      1.0000 0.34000  0.69620  0.67850  Biso   1.000  C 
  H6       1.0000 0.41460  0.65390  0.67710  Biso   1.000  H 
  C14      1.0000 0.24180  0.67670  0.71000  Biso   1.000  C 
  H7       1.0000 0.25300  0.61930  0.72820  Biso   1.000  H 
  H8       1.0000 0.04360  0.86140  0.68930  Biso   1.000  H 
  N3       1.0000 0.14930  0.66840  0.81380  Biso   1.000  N 
  C15      1.0000 0.24560  0.73900  0.81970  Biso   1.000  C 
  H9       1.0000 0.25010  0.79710  0.80170  Biso   1.000  H 
  C16      1.0000 0.33980  0.72800  0.85180  Biso   1.000  C 
  H10      1.0000 0.40640  0.77810  0.85420  Biso   1.000  H 
  C17      1.0000 0.33600  0.64560  0.87950  Biso   1.000  C 
  C18      1.0000 0.23660  0.57150  0.87400  Biso   1.000  C 
  H11      1.0000 0.22960  0.51350  0.89210  Biso   1.000  H 
  C19      1.0000 0.14430  0.58680  0.83950  Biso   1.000  C 
  H12      1.0000 0.07860  0.53650  0.83530  Biso   1.000  H 
  C20      1.0000 0.42840  0.63590  0.91570  Biso   1.000  C 
  S3       1.0000 0.34700  0.61700  0.96559  Biso   1.000  S 
  C21      1.0000 0.48860  0.63960  0.99700  Biso   1.000  C 
  C22      1.0000 0.48680  0.64950  0.03830  Biso   1.000  C 
  S4       1.0000 0.34040  0.64950  0.06889  Biso   1.000  S 
  C23      1.0000 0.41280  0.69410  0.11620  Biso   1.000  C 
  C24      1.0000 0.54510  0.70550  0.11730  Biso   1.000  C 
  C25      1.0000 0.63930  0.72810  0.15220  Biso   1.000  C 
  C26      1.0000 0.63080  0.67960  0.19120  Biso   1.000  C 
  H13      1.0000 0.56360  0.63210  0.19710  Biso   1.000  H 
  C27      1.0000 0.72520  0.70400  0.22110  Biso   1.000  C 
  H14      1.0000 0.72070  0.66940  0.24710  Biso   1.000  H 
  N4       1.0000 0.82350  0.77390  0.21580  Biso   1.000  N 
  C28      1.0000 0.82730  0.82260  0.17920  Biso   1.000  C 
  H15      1.0000 0.89450  0.87100  0.17470  Biso   1.000  H 
  C29      1.0000 0.73710  0.80580  0.14710  Biso   1.000  C 
  H16      1.0000 0.74080  0.84550  0.12240  Biso   1.000  H 
  Mn2      1.0000 0.98586  0.80054  0.26492  Biso   1.000  Mn
  N5       1.0000 0.14050  0.76560  0.21390  Biso   1.000  N 
  C30      1.0000 0.11800  0.68070  0.18630  Biso   1.000  C 
  H17      1.0000 0.04360  0.63860  0.18930  Biso   1.000  H 
  C31      1.0000 0.20560  0.65930  0.15460  Biso   1.000  C 
  H18      1.0000 0.18910  0.60400  0.13580  Biso   1.000  H 
  C32      1.0000 0.32140  0.72140  0.15050  Biso   1.000  C 
  C33      1.0000 0.34000  0.80380  0.17850  Biso   1.000  C 
  H19      1.0000 0.41460  0.84610  0.17710  Biso   1.000  H 
  C34      1.0000 0.24180  0.82330  0.21000  Biso   1.000  C 
  H20      1.0000 0.25300  0.88070  0.22820  Biso   1.000  H 
  N6       1.0000 0.14930  0.83160  0.31380  Biso   1.000  N 
  C35      1.0000 0.24560  0.76100  0.31970  Biso   1.000  C 
  H21      1.0000 0.25010  0.70290  0.30170  Biso   1.000  H 
  C36      1.0000 0.33980  0.77200  0.35180  Biso   1.000  C 
  H22      1.0000 0.40640  0.72190  0.35420  Biso   1.000  H 
  C37      1.0000 0.33600  0.85440  0.37950  Biso   1.000  C 
  C38      1.0000 0.23660  0.92850  0.37400  Biso   1.000  C 
  H23      1.0000 0.22960  0.98650  0.39210  Biso   1.000  H 
  C39      1.0000 0.14430  0.91320  0.33950  Biso   1.000  C 
  H24      1.0000 0.07860  0.96350  0.33530  Biso   1.000  H 
  C40      1.0000 0.42840  0.86410  0.41570  Biso   1.000  C 
  C41      1.0000 0.55790  0.85570  0.41670  Biso   1.000  C 
  C42      1.0000 0.64940  0.84430  0.38140  Biso   1.000  C 
  C43      1.0000 0.63450  0.89810  0.34340  Biso   1.000  C 
  H25      1.0000 0.56180  0.94140  0.33900  Biso   1.000  H 
  C44      1.0000 0.72670  0.88780  0.31220  Biso   1.000  C 
  H26      1.0000 0.71730  0.92830  0.28770  Biso   1.000  H 
  N7       1.0000 0.83150  0.82070  0.31570  Biso   1.000  N 
  C45      1.0000 0.84100  0.76940  0.35270  Biso   1.000  C 
  H27      1.0000 0.91260  0.72440  0.35610  Biso   1.000  H 
  C46      1.0000 0.75560  0.77610  0.38650  Biso   1.000  C 
  H28      1.0000 0.76860  0.73710  0.41110  Biso   1.000  H 
  S5       1.0000 0.63420  0.86270  0.46787  Biso   1.000  S 
  N8       1.0000 0.98810  0.96950  0.25200  Biso   1.000  N 
  N9       1.0000 0.99490  0.05010  0.23450  Biso   1.000  N 
  N10      1.0000 0.00860  0.13190  0.21670  Biso   1.000  N 
  Mn3      1.0000 0.01414  0.30054  0.23508  Biso   1.000  Mn
  N11      1.0000 0.16850  0.32070  0.18430  Biso   1.000  N 
  C47      1.0000 0.15900  0.26940  0.14730  Biso   1.000  C 
  H29      1.0000 0.08740  0.22440  0.14390  Biso   1.000  H 
  C48      1.0000 0.24440  0.27610  0.11350  Biso   1.000  C 
  H30      1.0000 0.23140  0.23710  0.08890  Biso   1.000  H 
  C49      1.0000 0.35060  0.34430  0.11860  Biso   1.000  C 
  C50      1.0000 0.36550  0.39810  0.15660  Biso   1.000  C 
  C51      1.0000 0.27330  0.38780  0.18780  Biso   1.000  C 
  H31      1.0000 0.28270  0.42830  0.21230  Biso   1.000  H 
  H32      1.0000 0.43820  0.44140  0.16100  Biso   1.000  H 
  C52      1.0000 0.44210  0.35570  0.08330  Biso   1.000  C 
  C53      1.0000 0.57160  0.36410  0.08430  Biso   1.000  C 
  C54      1.0000 0.66400  0.35440  0.12050  Biso   1.000  C 
  C55      1.0000 0.76340  0.42850  0.12600  Biso   1.000  C 
  H33      1.0000 0.77040  0.48650  0.10790  Biso   1.000  H 
  C56      1.0000 0.85570  0.41320  0.16050  Biso   1.000  C 
  H34      1.0000 0.92140  0.46350  0.16470  Biso   1.000  H 
  N12      1.0000 0.85070  0.33160  0.18620  Biso   1.000  N 
  C57      1.0000 0.75440  0.26100  0.18030  Biso   1.000  C 
  H35      1.0000 0.74990  0.20290  0.19830  Biso   1.000  H 
  C58      1.0000 0.66020  0.27200  0.14820  Biso   1.000  C 
  H36      1.0000 0.59360  0.22190  0.14580  Biso   1.000  H 
  S6       1.0000 0.65300  0.38300  0.03441  Biso   1.000  S 
  C59      1.0000 0.51140  0.36040  0.00300  Biso   1.000  C 
  S7       1.0000 0.36580  0.36270  0.03213  Biso   1.000  S 
  C60      1.0000 0.51320  0.35050  0.96170  Biso   1.000  C 
  S8       1.0000 0.65960  0.35050  0.93111  Biso   1.000  S 
  C61      1.0000 0.58720  0.30590  0.88380  Biso   1.000  C 
  C62      1.0000 0.45490  0.29450  0.88270  Biso   1.000  C 
  C63      1.0000 0.36070  0.27190  0.84780  Biso   1.000  C 
  C64      1.0000 0.26290  0.19420  0.85290  Biso   1.000  C 
  H37      1.0000 0.25920  0.15450  0.87760  Biso   1.000  H 
  C65      1.0000 0.17270  0.17740  0.82080  Biso   1.000  C 
  H38      1.0000 0.10550  0.12900  0.82530  Biso   1.000  H 
  N13      1.0000 0.17650  0.22610  0.78420  Biso   1.000  N 
  Mn4      1.0000 0.01414  0.19946  0.73508  Biso   1.000  Mn
  N14      1.0000 0.16850  0.17930  0.68430  Biso   1.000  N 
  C66      1.0000 0.15900  0.23060  0.64730  Biso   1.000  C 
  H39      1.0000 0.08740  0.27560  0.64390  Biso   1.000  H 
  C67      1.0000 0.24440  0.22390  0.61350  Biso   1.000  C 
  H40      1.0000 0.23140  0.26290  0.58890  Biso   1.000  H 
  C68      1.0000 0.35060  0.15570  0.61860  Biso   1.000  C 
  C69      1.0000 0.36550  0.10190  0.65660  Biso   1.000  C 
  H41      1.0000 0.43820  0.05860  0.66100  Biso   1.000  H 
  C70      1.0000 0.27330  0.11220  0.68780  Biso   1.000  C 
  H42      1.0000 0.28270  0.07170  0.71230  Biso   1.000  H 
  C71      1.0000 0.44210  0.14430  0.58330  Biso   1.000  C 
  C72      1.0000 0.57160  0.13590  0.58430  Biso   1.000  C 
  C73      1.0000 0.66400  0.14560  0.62050  Biso   1.000  C 
  C74      1.0000 0.76340  0.07150  0.62600  Biso   1.000  C 
  H43      1.0000 0.77040  0.01350  0.60790  Biso   1.000  H 
  C75      1.0000 0.85570  0.08680  0.66050  Biso   1.000  C 
  H44      1.0000 0.92140  0.03650  0.66470  Biso   1.000  H 
  N15      1.0000 0.85070  0.16840  0.68620  Biso   1.000  N 
  C76      1.0000 0.75440  0.23900  0.68030  Biso   1.000  C 
  H45      1.0000 0.74990  0.29710  0.69830  Biso   1.000  H 
  C77      1.0000 0.66020  0.22800  0.64820  Biso   1.000  C 
  H46      1.0000 0.59360  0.27810  0.64580  Biso   1.000  H 
  S9       1.0000 0.65300  0.11700  0.53441  Biso   1.000  S 
  C78      1.0000 0.51140  0.13960  0.50300  Biso   1.000  C 
  C79      1.0000 0.51320  0.14950  0.46170  Biso   1.000  C 
  S10      1.0000 0.65960  0.14950  0.43111  Biso   1.000  S 
  C80      1.0000 0.58720  0.19410  0.38380  Biso   1.000  C 
  C81      1.0000 0.45490  0.20550  0.38270  Biso   1.000  C 
  C82      1.0000 0.36070  0.22810  0.34780  Biso   1.000  C 
  C83      1.0000 0.36920  0.17960  0.30880  Biso   1.000  C 
  C84      1.0000 0.27480  0.20400  0.27890  Biso   1.000  C 
  H47      1.0000 0.27930  0.16940  0.25290  Biso   1.000  H 
  N16      1.0000 0.17650  0.27390  0.28420  Biso   1.000  N 
  C85      1.0000 0.17270  0.32260  0.32080  Biso   1.000  C 
  H48      1.0000 0.10550  0.37100  0.32530  Biso   1.000  H 
  C86      1.0000 0.26290  0.30580  0.35290  Biso   1.000  C 
  H49      1.0000 0.25920  0.34550  0.37760  Biso   1.000  H 
  H50      1.0000 0.43640  0.13210  0.30290  Biso   1.000  H 
  S11      1.0000 0.37150  0.17000  0.43050  Biso   1.000  S 
  C87      1.0000 0.67860  0.22140  0.34950  Biso   1.000  C 
  C88      1.0000 0.66000  0.30380  0.32150  Biso   1.000  C 
  H51      1.0000 0.58540  0.34610  0.32290  Biso   1.000  H 
  C89      1.0000 0.75820  0.32330  0.29000  Biso   1.000  C 
  H52      1.0000 0.74700  0.38070  0.27180  Biso   1.000  H 
  N17      1.0000 0.85950  0.26560  0.28610  Biso   1.000  N 
  C90      1.0000 0.88200  0.18070  0.31370  Biso   1.000  C 
  H53      1.0000 0.95640  0.13860  0.31070  Biso   1.000  H 
  C91      1.0000 0.79440  0.15930  0.34540  Biso   1.000  C 
  H54      1.0000 0.81090  0.10400  0.36420  Biso   1.000  H 
  S12      1.0000 0.36580  0.13730  0.53213  Biso   1.000  S 
  N18      1.0000 0.85950  0.23440  0.78610  Biso   1.000  N 
  C92      1.0000 0.75820  0.17670  0.79000  Biso   1.000  C 
  H55      1.0000 0.74700  0.11930  0.77180  Biso   1.000  H 
  C93      1.0000 0.66000  0.19620  0.82150  Biso   1.000  C 
  H56      1.0000 0.58540  0.15390  0.82290  Biso   1.000  H 
  C94      1.0000 0.67860  0.27860  0.84950  Biso   1.000  C 
  C95      1.0000 0.79440  0.34070  0.84540  Biso   1.000  C 
  H57      1.0000 0.81090  0.39600  0.86420  Biso   1.000  H 
  C96      1.0000 0.88200  0.31930  0.81370  Biso   1.000  C 
  H58      1.0000 0.95640  0.36140  0.81070  Biso   1.000  H 
  N19      1.0000 0.01190  0.03050  0.74800  Biso   1.000  N 
  N20      1.0000 0.00510  0.94990  0.76550  Biso   1.000  N 
  N21      1.0000 0.99140  0.86810  0.78330  Biso   1.000  N 
  N22      1.0000 0.00860  0.36810  0.71670  Biso   1.000  N 
  N23      1.0000 0.99490  0.44990  0.73450  Biso   1.000  N 
  N24      1.0000 0.98810  0.53050  0.75200  Biso   1.000  N 
  C97      1.0000 0.27480  0.29600  0.77890  Biso   1.000  C 
  H59      1.0000 0.27930  0.33060  0.75290  Biso   1.000  H 
  C98      1.0000 0.36920  0.32040  0.80880  Biso   1.000  C 
  H60      1.0000 0.43640  0.36790  0.80290  Biso   1.000  H 
  S13      1.0000 0.37150  0.33000  0.93050  Biso   1.000  S 
  N25      1.0000 0.01190  0.46950  0.24800  Biso   1.000  N 
  N26      1.0000 0.00510  0.55010  0.26550  Biso   1.000  N 
  N27      1.0000 0.99140  0.63190  0.28330  Biso   1.000  N 
  S14      1.0000 0.62850  0.67000  0.06950  Biso   1.000  S 
  S15      1.0000 0.63420  0.63730  0.96787  Biso   1.000  S 
  C99      1.0000 0.55790  0.64430  0.91670  Biso   1.000  C 
  C100     1.0000 0.64940  0.65570  0.88140  Biso   1.000  C 
  C101     1.0000 0.63450  0.60190  0.84340  Biso   1.000  C 
  H61      1.0000 0.56180  0.55860  0.83900  Biso   1.000  H 
  C102     1.0000 0.72670  0.61220  0.81220  Biso   1.000  C 
  H62      1.0000 0.71730  0.57170  0.78770  Biso   1.000  H 
  N28      1.0000 0.83150  0.67930  0.81570  Biso   1.000  N 
  C103     1.0000 0.84100  0.73060  0.85270  Biso   1.000  C 
  H63      1.0000 0.91260  0.77560  0.85610  Biso   1.000  H 
  C104     1.0000 0.75560  0.72390  0.88650  Biso   1.000  C 
  H64      1.0000 0.76860  0.76290  0.91110  Biso   1.000  H 
  S16      1.0000 0.62850  0.83000  0.56950  Biso   1.000  S 
