data_image0
_cell_length_a       17.2044
_cell_length_b       25.9374
_cell_length_c       14.6116
_cell_angle_alpha    90
_cell_angle_beta     100.672
_cell_angle_gamma    90

_symmetry_space_group_name_H-M    "P 1"
_symmetry_int_tables_number       1

loop_
  _symmetry_equiv_pos_as_xyz
  'x, y, z'

loop_
  _atom_site_label
  _atom_site_occupancy
  _atom_site_fract_x
  _atom_site_fract_y
  _atom_site_fract_z
  _atom_site_thermal_displace_type
  _atom_site_B_iso_or_equiv
  _atom_site_type_symbol
  Cu1      1.0000 0.07797  0.00000  0.51289  Biso   1.000  Cu
  O1       1.0000 0.20340  0.00000  0.52280  Biso   1.000  O 
  H1       1.0000 0.23560  0.00000  0.57900  Biso   1.000  H 
  H2       1.0000 0.22460  0.00000  0.47060  Biso   1.000  H 
  O2       1.0000 0.06090  0.05292  0.41540  Biso   1.000  O 
  C1       1.0000 0.99420  0.06880  0.37640  Biso   1.000  C 
  O3       1.0000 0.92940  0.05298  0.39350  Biso   1.000  O 
  Cu2      1.0000 0.92203  0.00000  0.48711  Biso   1.000  Cu
  O4       1.0000 0.93910  0.05292  0.58460  Biso   1.000  O 
  C2       1.0000 0.00580  0.06880  0.62360  Biso   1.000  C 
  O5       1.0000 0.07060  0.05298  0.60650  Biso   1.000  O 
  C3       1.0000 0.00740  0.10860  0.69750  Biso   1.000  C 
  C4       1.0000 0.08000  0.12720  0.74470  Biso   1.000  C 
  H3       1.0000 0.12670  0.11400  0.73070  Biso   1.000  H 
  C5       1.0000 0.08340  0.16530  0.81280  Biso   1.000  C 
  C6       1.0000 0.16210  0.18340  0.86630  Biso   1.000  C 
  O6       1.0000 0.22190  0.16140  0.85950  Biso   1.000  O 
  O7       1.0000 0.15880  0.22310  0.91540  Biso   1.000  O 
  Cu3      1.0000 0.25000  0.25000  0.00000  Biso   1.000  Cu
  N1       1.0000 0.21010  0.21743  0.10490  Biso   1.000  N 
  C7       1.0000 0.13850  0.20310  0.10660  Biso   1.000  C 
  H4       1.0000 0.09730  0.20600  0.05580  Biso   1.000  H 
  N2       1.0000 0.12960  0.18402  0.18720  Biso   1.000  N 
  C8       1.0000 0.05840  0.16420  0.21190  Biso   1.000  C 
  C9       1.0000 0.06170  0.12740  0.28000  Biso   1.000  C 
  H5       1.0000 0.11040  0.11520  0.31090  Biso   1.000  H 
  C10      1.0000 0.99260  0.10860  0.30250  Biso   1.000  C 
  C11      1.0000 0.92000  0.12720  0.25530  Biso   1.000  C 
  C12      1.0000 0.91660  0.16530  0.18720  Biso   1.000  C 
  C13      1.0000 0.98680  0.18380  0.16770  Biso   1.000  C 
  H6       1.0000 0.98590  0.21000  0.12400  Biso   1.000  H 
  C14      1.0000 0.83790  0.18340  0.13370  Biso   1.000  C 
  O8       1.0000 0.77810  0.16140  0.14050  Biso   1.000  O 
  O9       1.0000 0.84120  0.22310  0.08460  Biso   1.000  O 
  Cu4      1.0000 0.75000  0.25000  0.00000  Biso   1.000  Cu
  N3       1.0000 0.71010  0.28257  0.10490  Biso   1.000  N 
  C15      1.0000 0.63850  0.29690  0.10660  Biso   1.000  C 
  H7       1.0000 0.59730  0.29400  0.05580  Biso   1.000  H 
  N4       1.0000 0.62960  0.31598  0.18720  Biso   1.000  N 
  C16      1.0000 0.70460  0.31410  0.24400  Biso   1.000  C 
  H8       1.0000 0.71810  0.32430  0.30600  Biso   1.000  H 
  C17      1.0000 0.75180  0.29510  0.19220  Biso   1.000  C 
  H9       1.0000 0.80600  0.29060  0.21140  Biso   1.000  H 
  C18      1.0000 0.55840  0.33580  0.21190  Biso   1.000  C 
  C19      1.0000 0.56170  0.37260  0.28000  Biso   1.000  C 
  H10      1.0000 0.61040  0.38480  0.31090  Biso   1.000  H 
  C20      1.0000 0.49260  0.39140  0.30250  Biso   1.000  C 
  C21      1.0000 0.42000  0.37280  0.25530  Biso   1.000  C 
  H11      1.0000 0.37330  0.38600  0.26930  Biso   1.000  H 
  C22      1.0000 0.41660  0.33470  0.18720  Biso   1.000  C 
  C23      1.0000 0.33790  0.31660  0.13370  Biso   1.000  C 
  O10      1.0000 0.27810  0.33860  0.14050  Biso   1.000  O 
  O11      1.0000 0.34120  0.27690  0.08460  Biso   1.000  O 
  C24      1.0000 0.48680  0.31620  0.16770  Biso   1.000  C 
  H12      1.0000 0.48590  0.29000  0.12400  Biso   1.000  H 
  C25      1.0000 0.49420  0.43120  0.37640  Biso   1.000  C 
  O12      1.0000 0.56090  0.44708  0.41540  Biso   1.000  O 
  Cu5      1.0000 0.57797  0.50000  0.51289  Biso   1.000  Cu
  O13      1.0000 0.57060  0.44702  0.60650  Biso   1.000  O 
  C26      1.0000 0.50580  0.43120  0.62360  Biso   1.000  C 
  O14      1.0000 0.43910  0.44708  0.58460  Biso   1.000  O 
  Cu6      1.0000 0.42203  0.50000  0.48711  Biso   1.000  Cu
  O15      1.0000 0.42940  0.44702  0.39350  Biso   1.000  O 
  O16      1.0000 0.42940  0.55298  0.39350  Biso   1.000  O 
  C27      1.0000 0.49420  0.56880  0.37640  Biso   1.000  C 
  O17      1.0000 0.56090  0.55292  0.41540  Biso   1.000  O 
  C28      1.0000 0.49260  0.60860  0.30250  Biso   1.000  C 
  C29      1.0000 0.42000  0.62720  0.25530  Biso   1.000  C 
  H13      1.0000 0.37330  0.61400  0.26930  Biso   1.000  H 
  C30      1.0000 0.41660  0.66530  0.18720  Biso   1.000  C 
  C31      1.0000 0.33790  0.68340  0.13370  Biso   1.000  C 
  O18      1.0000 0.27810  0.66140  0.14050  Biso   1.000  O 
  O19      1.0000 0.34120  0.72310  0.08460  Biso   1.000  O 
  Cu7      1.0000 0.25000  0.75000  0.00000  Biso   1.000  Cu
  N5       1.0000 0.21010  0.78257  0.10490  Biso   1.000  N 
  C32      1.0000 0.25180  0.79510  0.19220  Biso   1.000  C 
  H14      1.0000 0.30600  0.79060  0.21140  Biso   1.000  H 
  C33      1.0000 0.13850  0.79690  0.10660  Biso   1.000  C 
  H15      1.0000 0.09730  0.79400  0.05580  Biso   1.000  H 
  N6       1.0000 0.12960  0.81598  0.18720  Biso   1.000  N 
  C34      1.0000 0.20460  0.81410  0.24400  Biso   1.000  C 
  H16      1.0000 0.21810  0.82430  0.30600  Biso   1.000  H 
  C35      1.0000 0.05840  0.83580  0.21190  Biso   1.000  C 
  C36      1.0000 0.06170  0.87260  0.28000  Biso   1.000  C 
  H17      1.0000 0.11040  0.88480  0.31090  Biso   1.000  H 
  C37      1.0000 0.99260  0.89140  0.30250  Biso   1.000  C 
  C38      1.0000 0.92000  0.87280  0.25530  Biso   1.000  C 
  C39      1.0000 0.91660  0.83470  0.18720  Biso   1.000  C 
  C40      1.0000 0.83790  0.81660  0.13370  Biso   1.000  C 
  O20      1.0000 0.77810  0.83860  0.14050  Biso   1.000  O 
  O21      1.0000 0.84120  0.77690  0.08460  Biso   1.000  O 
  Cu8      1.0000 0.75000  0.75000  0.00000  Biso   1.000  Cu
  N7       1.0000 0.71010  0.71743  0.10490  Biso   1.000  N 
  C41      1.0000 0.63850  0.70310  0.10660  Biso   1.000  C 
  H18      1.0000 0.59730  0.70600  0.05580  Biso   1.000  H 
  N8       1.0000 0.62960  0.68402  0.18720  Biso   1.000  N 
  C42      1.0000 0.70460  0.68590  0.24400  Biso   1.000  C 
  H19      1.0000 0.71810  0.67570  0.30600  Biso   1.000  H 
  C43      1.0000 0.75180  0.70490  0.19220  Biso   1.000  C 
  H20      1.0000 0.80600  0.70940  0.21140  Biso   1.000  H 
  C44      1.0000 0.55840  0.66420  0.21190  Biso   1.000  C 
  C45      1.0000 0.48680  0.68380  0.16770  Biso   1.000  C 
  H21      1.0000 0.48590  0.71000  0.12400  Biso   1.000  H 
  C46      1.0000 0.56170  0.62740  0.28000  Biso   1.000  C 
  H22      1.0000 0.61040  0.61520  0.31090  Biso   1.000  H 
  O22      1.0000 0.65880  0.72310  0.91540  Biso   1.000  O 
  C47      1.0000 0.66210  0.68340  0.86630  Biso   1.000  C 
  O23      1.0000 0.72190  0.66140  0.85950  Biso   1.000  O 
  C48      1.0000 0.58340  0.66530  0.81280  Biso   1.000  C 
  C49      1.0000 0.51320  0.68380  0.83230  Biso   1.000  C 
  H23      1.0000 0.51410  0.71000  0.87600  Biso   1.000  H 
  C50      1.0000 0.44160  0.66420  0.78810  Biso   1.000  C 
  C51      1.0000 0.43830  0.62740  0.72000  Biso   1.000  C 
  H24      1.0000 0.38960  0.61520  0.68910  Biso   1.000  H 
  C52      1.0000 0.50740  0.60860  0.69750  Biso   1.000  C 
  C53      1.0000 0.50580  0.56880  0.62360  Biso   1.000  C 
  O24      1.0000 0.43910  0.55292  0.58460  Biso   1.000  O 
  O25      1.0000 0.57060  0.55298  0.60650  Biso   1.000  O 
  C54      1.0000 0.58000  0.62720  0.74470  Biso   1.000  C 
  H25      1.0000 0.62670  0.61400  0.73070  Biso   1.000  H 
  N9       1.0000 0.37040  0.68402  0.81280  Biso   1.000  N 
  C55      1.0000 0.36150  0.70310  0.89340  Biso   1.000  C 
  H26      1.0000 0.40270  0.70600  0.94420  Biso   1.000  H 
  N10      1.0000 0.28990  0.71743  0.89510  Biso   1.000  N 
  C56      1.0000 0.24820  0.70490  0.80780  Biso   1.000  C 
  H27      1.0000 0.19400  0.70940  0.78860  Biso   1.000  H 
  C57      1.0000 0.29540  0.68590  0.75600  Biso   1.000  C 
  H28      1.0000 0.28190  0.67570  0.69400  Biso   1.000  H 
  N11      1.0000 0.78990  0.78257  0.89510  Biso   1.000  N 
  C58      1.0000 0.86150  0.79690  0.89340  Biso   1.000  C 
  H29      1.0000 0.90270  0.79400  0.94420  Biso   1.000  H 
  N12      1.0000 0.87040  0.81598  0.81280  Biso   1.000  N 
  C59      1.0000 0.94160  0.83580  0.78810  Biso   1.000  C 
  C60      1.0000 0.93830  0.87260  0.72000  Biso   1.000  C 
  H30      1.0000 0.88960  0.88480  0.68910  Biso   1.000  H 
  C61      1.0000 0.00740  0.89140  0.69750  Biso   1.000  C 
  C62      1.0000 0.08000  0.87280  0.74470  Biso   1.000  C 
  C63      1.0000 0.08340  0.83470  0.81280  Biso   1.000  C 
  C64      1.0000 0.16210  0.81660  0.86630  Biso   1.000  C 
  O26      1.0000 0.22190  0.83860  0.85950  Biso   1.000  O 
  O27      1.0000 0.15880  0.77690  0.91540  Biso   1.000  O 
  C65      1.0000 0.01320  0.81620  0.83230  Biso   1.000  C 
  H31      1.0000 0.01410  0.79000  0.87600  Biso   1.000  H 
  H32      1.0000 0.12670  0.88600  0.73070  Biso   1.000  H 
  C66      1.0000 0.00580  0.93120  0.62360  Biso   1.000  C 
  O28      1.0000 0.93910  0.94708  0.58460  Biso   1.000  O 
  O29      1.0000 0.07060  0.94702  0.60650  Biso   1.000  O 
  C67      1.0000 0.79540  0.81410  0.75600  Biso   1.000  C 
  H33      1.0000 0.78190  0.82430  0.69400  Biso   1.000  H 
  C68      1.0000 0.74820  0.79510  0.80780  Biso   1.000  C 
  H34      1.0000 0.69400  0.79060  0.78860  Biso   1.000  H 
  C69      1.0000 0.98680  0.81620  0.16770  Biso   1.000  C 
  H35      1.0000 0.98590  0.79000  0.12400  Biso   1.000  H 
  H36      1.0000 0.87330  0.88600  0.26930  Biso   1.000  H 
  C70      1.0000 0.99420  0.93120  0.37640  Biso   1.000  C 
  O30      1.0000 0.06090  0.94708  0.41540  Biso   1.000  O 
  O31      1.0000 0.92940  0.94702  0.39350  Biso   1.000  O 
  O32      1.0000 0.29660  0.50000  0.47720  Biso   1.000  O 
  H37      1.0000 0.27540  0.50000  0.52940  Biso   1.000  H 
  H38      1.0000 0.26440  0.50000  0.42100  Biso   1.000  H 
  C71      1.0000 0.50740  0.39140  0.69750  Biso   1.000  C 
  C72      1.0000 0.58000  0.37280  0.74470  Biso   1.000  C 
  C73      1.0000 0.58340  0.33470  0.81280  Biso   1.000  C 
  C74      1.0000 0.51320  0.31620  0.83230  Biso   1.000  C 
  H39      1.0000 0.51410  0.29000  0.87600  Biso   1.000  H 
  C75      1.0000 0.44160  0.33580  0.78810  Biso   1.000  C 
  C76      1.0000 0.43830  0.37260  0.72000  Biso   1.000  C 
  H40      1.0000 0.38960  0.38480  0.68910  Biso   1.000  H 
  N13      1.0000 0.37040  0.31598  0.81280  Biso   1.000  N 
  C77      1.0000 0.29540  0.31410  0.75600  Biso   1.000  C 
  H41      1.0000 0.28190  0.32430  0.69400  Biso   1.000  H 
  C78      1.0000 0.24820  0.29510  0.80780  Biso   1.000  C 
  H42      1.0000 0.19400  0.29060  0.78860  Biso   1.000  H 
  C79      1.0000 0.36150  0.29690  0.89340  Biso   1.000  C 
  H43      1.0000 0.40270  0.29400  0.94420  Biso   1.000  H 
  N14      1.0000 0.28990  0.28257  0.89510  Biso   1.000  N 
  C80      1.0000 0.66210  0.31660  0.86630  Biso   1.000  C 
  O33      1.0000 0.72190  0.33860  0.85950  Biso   1.000  O 
  O34      1.0000 0.65880  0.27690  0.91540  Biso   1.000  O 
  H44      1.0000 0.62670  0.38600  0.73070  Biso   1.000  H 
  O35      1.0000 0.70340  0.50000  0.52280  Biso   1.000  O 
  H45      1.0000 0.73560  0.50000  0.57900  Biso   1.000  H 
  H46      1.0000 0.72460  0.50000  0.47060  Biso   1.000  H 
  N15      1.0000 0.78990  0.21743  0.89510  Biso   1.000  N 
  C81      1.0000 0.86150  0.20310  0.89340  Biso   1.000  C 
  H47      1.0000 0.90270  0.20600  0.94420  Biso   1.000  H 
  N16      1.0000 0.87040  0.18402  0.81280  Biso   1.000  N 
  C82      1.0000 0.79540  0.18590  0.75600  Biso   1.000  C 
  H48      1.0000 0.78190  0.17570  0.69400  Biso   1.000  H 
  C83      1.0000 0.74820  0.20490  0.80780  Biso   1.000  C 
  H49      1.0000 0.69400  0.20940  0.78860  Biso   1.000  H 
  C84      1.0000 0.94160  0.16420  0.78810  Biso   1.000  C 
  C85      1.0000 0.93830  0.12740  0.72000  Biso   1.000  C 
  H50      1.0000 0.88960  0.11520  0.68910  Biso   1.000  H 
  C86      1.0000 0.01320  0.18380  0.83230  Biso   1.000  C 
  H51      1.0000 0.01410  0.21000  0.87600  Biso   1.000  H 
  H52      1.0000 0.87330  0.11400  0.26930  Biso   1.000  H 
  C87      1.0000 0.20460  0.18590  0.24400  Biso   1.000  C 
  H53      1.0000 0.21810  0.17570  0.30600  Biso   1.000  H 
  C88      1.0000 0.25180  0.20490  0.19220  Biso   1.000  C 
  H54      1.0000 0.30600  0.20940  0.21140  Biso   1.000  H 
  O36      1.0000 0.79660  0.00000  0.47720  Biso   1.000  O 
  H55      1.0000 0.76440  0.00000  0.42100  Biso   1.000  H 
  H56      1.0000 0.77540  0.00000  0.52940  Biso   1.000  H 
