data_image0
_cell_length_a       7.952
_cell_length_b       23.02
_cell_length_c       15.1
_cell_angle_alpha    90
_cell_angle_beta     92.952
_cell_angle_gamma    90

_symmetry_space_group_name_H-M    "P 1"
_symmetry_int_tables_number       1

loop_
  _symmetry_equiv_pos_as_xyz
  'x, y, z'

loop_
  _atom_site_label
  _atom_site_occupancy
  _atom_site_fract_x
  _atom_site_fract_y
  _atom_site_fract_z
  _atom_site_thermal_displace_type
  _atom_site_B_iso_or_equiv
  _atom_site_type_symbol
  Ag1      1.0000 0.81466  0.48613  0.02697  Biso   1.000  Ag
  O1       1.0000 0.90340  0.41188  0.14260  Biso   1.000  O 
  H1       1.0000 0.98733  0.42399  0.09976  Biso   1.000  H 
  C1       1.0000 0.91550  0.44380  0.20910  Biso   1.000  C 
  C2       1.0000 0.95800  0.41120  0.29620  Biso   1.000  C 
  F1       1.0000 0.09950  0.37971  0.29200  Biso   1.000  F 
  F2       1.0000 0.83620  0.37342  0.31510  Biso   1.000  F 
  F3       1.0000 0.97910  0.44607  0.36600  Biso   1.000  F 
  O2       1.0000 0.89790  0.49696  0.21450  Biso   1.000  O 
  N1       1.0000 0.76910  0.57879  0.04840  Biso   1.000  N 
  C3       1.0000 0.69850  0.60133  0.11700  Biso   1.000  C 
  H2       1.0000 0.65580  0.58000  0.16480  Biso   1.000  H 
  N2       1.0000 0.69600  0.65956  0.10900  Biso   1.000  N 
  C4       1.0000 0.63200  0.70144  0.16780  Biso   1.000  C 
  C5       1.0000 0.63650  0.75986  0.14870  Biso   1.000  C 
  H3       1.0000 0.68590  0.77400  0.09690  Biso   1.000  H 
  C6       1.0000 0.56540  0.79700  0.20840  Biso   1.000  C 
  H4       1.0000 0.56410  0.83770  0.19750  Biso   1.000  H 
  C7       1.0000 0.49620  0.77538  0.28390  Biso   1.000  C 
  C8       1.0000 0.50310  0.71570  0.29550  Biso   1.000  C 
  N3       1.0000 0.56800  0.67851  0.23950  Biso   1.000  N 
  N4       1.0000 0.43440  0.68908  0.37100  Biso   1.000  N 
  N5       1.0000 0.37800  0.72096  0.43970  Biso   1.000  N 
  C9       1.0000 0.32880  0.68020  0.49390  Biso   1.000  C 
  H5       1.0000 0.28220  0.68870  0.54910  Biso   1.000  H 
  N6       1.0000 0.35020  0.62488  0.46440  Biso   1.000  N 
  C10      1.0000 0.41550  0.63220  0.38690  Biso   1.000  C 
  H6       1.0000 0.44490  0.60180  0.34800  Biso   1.000  H 
  Ag2      1.0000 0.32901  0.54054  0.52739  Biso   1.000  Ag
  Ag3      1.0000 0.67099  0.45946  0.47261  Biso   1.000  Ag
  H7       1.0000 0.62843  0.44143  0.35811  Biso   1.000  H 
  O3       1.0000 0.51190  0.44178  0.33110  Biso   1.000  O 
  C11      1.0000 0.50040  0.47950  0.27150  Biso   1.000  C 
  C12      1.0000 0.43960  0.45690  0.17960  Biso   1.000  C 
  F4       1.0000 0.27110  0.45910  0.17030  Biso   1.000  F 
  F5       1.0000 0.48290  0.40262  0.16370  Biso   1.000  F 
  F6       1.0000 0.49340  0.48805  0.11196  Biso   1.000  F 
  O4       1.0000 0.52290  0.53239  0.27450  Biso   1.000  O 
  N7       1.0000 0.64980  0.37512  0.53560  Biso   1.000  N 
  C13      1.0000 0.58450  0.36780  0.61310  Biso   1.000  C 
  H8       1.0000 0.55510  0.39820  0.65200  Biso   1.000  H 
  C14      1.0000 0.67120  0.31980  0.50610  Biso   1.000  C 
  H9       1.0000 0.71780  0.31130  0.45090  Biso   1.000  H 
  N8       1.0000 0.62200  0.27904  0.56030  Biso   1.000  N 
  N9       1.0000 0.56560  0.31092  0.62900  Biso   1.000  N 
  C15      1.0000 0.49690  0.28430  0.70450  Biso   1.000  C 
  N10      1.0000 0.43200  0.32149  0.76050  Biso   1.000  N 
  C16      1.0000 0.36800  0.29856  0.83220  Biso   1.000  C 
  C17      1.0000 0.36350  0.24014  0.85130  Biso   1.000  C 
  C18      1.0000 0.43460  0.20300  0.79160  Biso   1.000  C 
  C19      1.0000 0.50380  0.22462  0.71610  Biso   1.000  C 
  H10      1.0000 0.55360  0.19990  0.67450  Biso   1.000  H 
  H11      1.0000 0.43590  0.16230  0.80250  Biso   1.000  H 
  H12      1.0000 0.31410  0.22600  0.90310  Biso   1.000  H 
  N11      1.0000 0.30400  0.34044  0.89100  Biso   1.000  N 
  C20      1.0000 0.30150  0.39867  0.88300  Biso   1.000  C 
  H13      1.0000 0.34420  0.42000  0.83520  Biso   1.000  H 
  N12      1.0000 0.23090  0.42121  0.95160  Biso   1.000  N 
  Ag4      1.0000 0.18534  0.51387  0.97303  Biso   1.000  Ag
  H14      1.0000 0.01267  0.57601  0.90024  Biso   1.000  H 
  O5       1.0000 0.09660  0.58812  0.85740  Biso   1.000  O 
  C21      1.0000 0.08450  0.55620  0.79090  Biso   1.000  C 
  C22      1.0000 0.04200  0.58880  0.70380  Biso   1.000  C 
  F7       1.0000 0.90050  0.62029  0.70800  Biso   1.000  F 
  F8       1.0000 0.16380  0.62658  0.68490  Biso   1.000  F 
  F9       1.0000 0.02090  0.55393  0.63400  Biso   1.000  F 
  O6       1.0000 0.10210  0.50304  0.78550  Biso   1.000  O 
  N13      1.0000 0.20890  0.59180  0.05820  Biso   1.000  N 
  C23      1.0000 0.25140  0.64680  0.03470  Biso   1.000  C 
  H15      1.0000 0.30320  0.65530  0.98090  Biso   1.000  H 
  N14      1.0000 0.21510  0.68720  0.09220  Biso   1.000  N 
  N15      1.0000 0.14210  0.65566  0.15660  Biso   1.000  N 
  C24      1.0000 0.13960  0.59868  0.13560  Biso   1.000  C 
  H16      1.0000 0.09540  0.56850  0.17040  Biso   1.000  H 
  C25      1.0000 0.07200  0.68260  0.23130  Biso   1.000  C 
  N16      1.0000 0.00190  0.64574  0.28580  Biso   1.000  N 
  C26      1.0000 0.93520  0.66892  0.35640  Biso   1.000  C 
  C27      1.0000 0.93620  0.72750  0.37690  Biso   1.000  C 
  H17      1.0000 0.88710  0.74180  0.42870  Biso   1.000  H 
  C28      1.0000 0.01210  0.76400  0.31850  Biso   1.000  C 
  C29      1.0000 0.08050  0.74210  0.24350  Biso   1.000  C 
  H18      1.0000 0.13130  0.76670  0.20200  Biso   1.000  H 
  H19      1.0000 0.01720  0.80450  0.33000  Biso   1.000  H 
  N17      1.0000 0.85830  0.62766  0.41150  Biso   1.000  N 
  C30      1.0000 0.83120  0.57112  0.39530  Biso   1.000  C 
  H20      1.0000 0.86120  0.55070  0.34380  Biso   1.000  H 
  C31      1.0000 0.73820  0.59380  0.51930  Biso   1.000  C 
  H21      1.0000 0.68690  0.59020  0.57450  Biso   1.000  H 
  N18      1.0000 0.75540  0.54858  0.46360  Biso   1.000  N 
  N19      1.0000 0.79790  0.64320  0.49140  Biso   1.000  N 
  C32      1.0000 0.18760  0.37430  0.00160  Biso   1.000  C 
  H22      1.0000 0.13190  0.37760  0.05550  Biso   1.000  H 
  N20      1.0000 0.23100  0.32399  0.96720  Biso   1.000  N 
  N21      1.0000 0.24460  0.45142  0.53640  Biso   1.000  N 
  C33      1.0000 0.26180  0.40620  0.48070  Biso   1.000  C 
  H23      1.0000 0.31310  0.40980  0.42550  Biso   1.000  H 
  N22      1.0000 0.20210  0.35680  0.50860  Biso   1.000  N 
  N23      1.0000 0.14170  0.37234  0.58850  Biso   1.000  N 
  C34      1.0000 0.16880  0.42888  0.60470  Biso   1.000  C 
  H24      1.0000 0.13880  0.44930  0.65620  Biso   1.000  H 
  C35      1.0000 0.06480  0.33108  0.64360  Biso   1.000  C 
  C36      1.0000 0.06380  0.27250  0.62310  Biso   1.000  C 
  H25      1.0000 0.11290  0.25820  0.57130  Biso   1.000  H 
  C37      1.0000 0.98790  0.23600  0.68150  Biso   1.000  C 
  H26      1.0000 0.98280  0.19550  0.67000  Biso   1.000  H 
  C38      1.0000 0.91950  0.25790  0.75650  Biso   1.000  C 
  H27      1.0000 0.86870  0.23330  0.79800  Biso   1.000  H 
  C39      1.0000 0.92800  0.31740  0.76870  Biso   1.000  C 
  N24      1.0000 0.99810  0.35426  0.71420  Biso   1.000  N 
  N25      1.0000 0.85790  0.34434  0.84340  Biso   1.000  N 
  N26      1.0000 0.78490  0.31280  0.90780  Biso   1.000  N 
  C40      1.0000 0.74860  0.35320  0.96530  Biso   1.000  C 
  N27      1.0000 0.79110  0.40820  0.94180  Biso   1.000  N 
  C41      1.0000 0.86040  0.40132  0.86440  Biso   1.000  C 
  H28      1.0000 0.90460  0.43150  0.82960  Biso   1.000  H 
  H29      1.0000 0.69680  0.34470  0.01910  Biso   1.000  H 
  H30      1.0000 0.37157  0.55857  0.64189  Biso   1.000  H 
  O7       1.0000 0.48810  0.55822  0.66890  Biso   1.000  O 
  C42      1.0000 0.49960  0.52050  0.72850  Biso   1.000  C 
  C43      1.0000 0.56040  0.54310  0.82040  Biso   1.000  C 
  F10      1.0000 0.72890  0.54090  0.82970  Biso   1.000  F 
  F11      1.0000 0.51710  0.59738  0.83630  Biso   1.000  F 
  F12      1.0000 0.50660  0.51195  0.88804  Biso   1.000  F 
  O8       1.0000 0.47710  0.46761  0.72550  Biso   1.000  O 
  H31      1.0000 0.44640  0.80010  0.32550  Biso   1.000  H 
  N28      1.0000 0.76900  0.67601  0.03280  Biso   1.000  N 
  C44      1.0000 0.81240  0.62570  0.99840  Biso   1.000  C 
  H32      1.0000 0.86810  0.62240  0.94450  Biso   1.000  H 
