data_image0
_cell_length_a       21.169
_cell_length_b       15.965
_cell_length_c       15.885
_cell_angle_alpha    90
_cell_angle_beta     93.12
_cell_angle_gamma    90

_symmetry_space_group_name_H-M    "P 1"
_symmetry_int_tables_number       1

loop_
  _symmetry_equiv_pos_as_xyz
  'x, y, z'

loop_
  _atom_site_label
  _atom_site_occupancy
  _atom_site_fract_x
  _atom_site_fract_y
  _atom_site_fract_z
  _atom_site_thermal_displace_type
  _atom_site_B_iso_or_equiv
  _atom_site_type_symbol
  La1      1.0000 0.29978  0.76580  0.01461  Biso   1.000  La
  O1       1.0000 0.23130  0.89050  0.05770  Biso   1.000  O 
  C1       1.0000 0.20680  0.91370  0.98920  Biso   1.000  C 
  C2       1.0000 0.17020  0.99590  0.98050  Biso   1.000  C 
  H1       1.0000 0.11978  0.98206  0.97472  Biso   1.000  H 
  Cl1      1.0000 0.18540  0.06180  0.06830  Biso   1.000  Cl
  H2       1.0000 0.18405  0.02820  0.92401  Biso   1.000  H 
  O2       1.0000 0.20990  0.87170  0.92390  Biso   1.000  O 
  La2      1.0000 0.14248  0.79127  0.81691  Biso   1.000  La
  O3       1.0000 0.13290  0.62640  0.80220  Biso   1.000  O 
  C3       1.0000 0.07480  0.62650  0.80330  Biso   1.000  C 
  C4       1.0000 0.03850  0.54530  0.82400  Biso   1.000  C 
  H3       1.0000 0.00335  0.53339  0.77277  Biso   1.000  H 
  H4       1.0000 0.01479  0.55535  0.88230  Biso   1.000  H 
  Cl2      1.0000 0.08750  0.45480  0.83690  Biso   1.000  Cl
  O4       1.0000 0.04040  0.68780  0.79140  Biso   1.000  O 
  La3      1.0000 0.96284  0.75447  0.68423  Biso   1.000  La
  C5       1.0000 0.88020  0.60470  0.66500  Biso   1.000  C 
  C6       1.0000 0.83820  0.52780  0.67000  Biso   1.000  C 
  H5       1.0000 0.83826  0.49413  0.61038  Biso   1.000  H 
  H6       1.0000 0.79022  0.54783  0.68129  Biso   1.000  H 
  Cl3      1.0000 0.86420  0.46240  0.74930  Biso   1.000  Cl
  O5       1.0000 0.93880  0.59750  0.68000  Biso   1.000  O 
  O6       1.0000 0.85460  0.67320  0.64740  Biso   1.000  O 
  La4      1.0000 0.79978  0.73420  0.51461  Biso   1.000  La
  La5      1.0000 0.64248  0.70873  0.31691  Biso   1.000  La
  La6      1.0000 0.46284  0.74553  0.18423  Biso   1.000  La
  C7       1.0000 0.38020  0.89530  0.16500  Biso   1.000  C 
  C8       1.0000 0.33820  0.97220  0.17000  Biso   1.000  C 
  H7       1.0000 0.29022  0.95217  0.18129  Biso   1.000  H 
  Cl4      1.0000 0.36420  0.03760  0.24930  Biso   1.000  Cl
  H8       1.0000 0.33826  0.00587  0.11038  Biso   1.000  H 
  O7       1.0000 0.43880  0.90250  0.18000  Biso   1.000  O 
  O8       1.0000 0.35460  0.82680  0.14740  Biso   1.000  O 
  O9       1.0000 0.42110  0.74320  0.02430  Biso   1.000  O 
  C9       1.0000 0.46240  0.69000  0.00710  Biso   1.000  C 
  C10      1.0000 0.47560  0.68660  0.91460  Biso   1.000  C 
  H9       1.0000 0.43171  0.67236  0.87849  Biso   1.000  H 
  H10      1.0000 0.49310  0.74748  0.89554  Biso   1.000  H 
  Cl5      1.0000 0.53270  0.60910  0.89280  Biso   1.000  Cl
  O10      1.0000 0.49240  0.64750  0.06130  Biso   1.000  O 
  O11      1.0000 0.37890  0.63850  0.17650  Biso   1.000  O 
  C11      1.0000 0.34470  0.59580  0.12830  Biso   1.000  C 
  C12      1.0000 0.32790  0.51120  0.16750  Biso   1.000  C 
  H11      1.0000 0.37146  0.48079  0.19080  Biso   1.000  H 
  H12      1.0000 0.29791  0.52266  0.21987  Biso   1.000  H 
  Cl6      1.0000 0.28710  0.44270  0.09430  Biso   1.000  Cl
  O12      1.0000 0.32280  0.61570  0.05560  Biso   1.000  O 
  S1       1.0000 0.43200  0.80380  0.40190  Biso   1.000  S 
  C13      1.0000 0.45580  0.72570  0.47940  Biso   1.000  C 
  H13      1.0000 0.49487  0.68918  0.45674  Biso   1.000  H 
  H14      1.0000 0.41605  0.68439  0.48988  Biso   1.000  H 
  H15      1.0000 0.47084  0.75640  0.53835  Biso   1.000  H 
  C14      1.0000 0.36020  0.83720  0.44200  Biso   1.000  C 
  H16      1.0000 0.33451  0.87590  0.39520  Biso   1.000  H 
  H17      1.0000 0.33167  0.78280  0.45635  Biso   1.000  H 
  H18      1.0000 0.37004  0.87355  0.49923  Biso   1.000  H 
  O13      1.0000 0.41210  0.75420  0.32280  Biso   1.000  O 
  O14      1.0000 0.52550  0.63730  0.26020  Biso   1.000  O 
  C15      1.0000 0.52910  0.58850  0.32090  Biso   1.000  C 
  C16      1.0000 0.47930  0.51920  0.31600  Biso   1.000  C 
  H19      1.0000 0.47873  0.49109  0.25350  Biso   1.000  H 
  H20      1.0000 0.43329  0.54693  0.32588  Biso   1.000  H 
  Cl7      1.0000 0.49340  0.44220  0.38940  Biso   1.000  Cl
  O15      1.0000 0.56910  0.59690  0.38060  Biso   1.000  O 
  O16      1.0000 0.61800  0.73210  0.16600  Biso   1.000  O 
  C17      1.0000 0.59910  0.77260  0.10280  Biso   1.000  C 
  C18      1.0000 0.64170  0.77080  0.03270  Biso   1.000  C 
  H21      1.0000 0.64494  0.70625  0.01120  Biso   1.000  H 
  H22      1.0000 0.68813  0.79203  0.05672  Biso   1.000  H 
  Cl8      1.0000 0.61850  0.83350  0.94470  Biso   1.000  Cl
  O17      1.0000 0.54830  0.81100  0.09650  Biso   1.000  O 
  O18      1.0000 0.54040  0.81220  0.29140  Biso   1.000  O 
  C19      1.0000 0.57480  0.87350  0.30330  Biso   1.000  C 
  C20      1.0000 0.53850  0.95470  0.32400  Biso   1.000  C 
  H23      1.0000 0.50335  0.96661  0.27277  Biso   1.000  H 
  H24      1.0000 0.51479  0.94465  0.38230  Biso   1.000  H 
  Cl9      1.0000 0.58750  0.04520  0.33690  Biso   1.000  Cl
  O19      1.0000 0.63290  0.87360  0.30220  Biso   1.000  O 
  S2       1.0000 0.68300  0.56480  0.15000  Biso   1.000  S 
  C21      1.0000 0.73620  0.47860  0.14580  Biso   1.000  C 
  H25      1.0000 0.74560  0.46545  0.08039  Biso   1.000  H 
  H26      1.0000 0.78036  0.49400  0.18073  Biso   1.000  H 
  H27      1.0000 0.71515  0.42366  0.17372  Biso   1.000  H 
  C22      1.0000 0.61200  0.51480  0.11140  Biso   1.000  C 
  H28      1.0000 0.61454  0.50234  0.04427  Biso   1.000  H 
  H29      1.0000 0.60623  0.45599  0.14486  Biso   1.000  H 
  H30      1.0000 0.57182  0.55549  0.12147  Biso   1.000  H 
  O20      1.0000 0.67290  0.57820  0.24320  Biso   1.000  O 
  O21      1.0000 0.60450  0.77220  0.45420  Biso   1.000  O 
  C23      1.0000 0.65010  0.81790  0.47670  Biso   1.000  C 
  C24      1.0000 0.64270  0.89530  0.52850  Biso   1.000  C 
  H31      1.0000 0.67368  0.89034  0.58530  Biso   1.000  H 
  H32      1.0000 0.65656  0.94923  0.49180  Biso   1.000  H 
  Cl10     1.0000 0.56390  0.91070  0.55860  Biso   1.000  Cl
  O22      1.0000 0.70440  0.80610  0.45210  Biso   1.000  O 
  O23      1.0000 0.70990  0.62830  0.42390  Biso   1.000  O 
  C25      1.0000 0.70680  0.58630  0.48920  Biso   1.000  C 
  C26      1.0000 0.67020  0.50410  0.48050  Biso   1.000  C 
  H33      1.0000 0.68405  0.47180  0.42401  Biso   1.000  H 
  H34      1.0000 0.61978  0.51794  0.47472  Biso   1.000  H 
  Cl11     1.0000 0.68540  0.43820  0.56830  Biso   1.000  Cl
  O24      1.0000 0.73130  0.60950  0.55770  Biso   1.000  O 
  O25      1.0000 0.74810  0.74410  0.27560  Biso   1.000  O 
  C27      1.0000 0.80340  0.76230  0.29560  Biso   1.000  C 
  C28      1.0000 0.85140  0.77920  0.22980  Biso   1.000  C 
  H35      1.0000 0.88746  0.73052  0.23433  Biso   1.000  H 
  H36      1.0000 0.87327  0.83990  0.24285  Biso   1.000  H 
  Cl12     1.0000 0.81750  0.78010  0.12770  Biso   1.000  Cl
  O26      1.0000 0.82730  0.77110  0.36710  Biso   1.000  O 
  O27      1.0000 0.84920  0.60370  0.47040  Biso   1.000  O 
  S3       1.0000 0.87310  0.57530  0.38850  Biso   1.000  S 
  C29      1.0000 0.82540  0.48550  0.36370  Biso   1.000  C 
  H37      1.0000 0.83881  0.45895  0.30410  Biso   1.000  H 
  H38      1.0000 0.83251  0.43898  0.41346  Biso   1.000  H 
  H39      1.0000 0.77578  0.50379  0.35841  Biso   1.000  H 
  C30      1.0000 0.94570  0.52670  0.41280  Biso   1.000  C 
  H40      1.0000 0.93878  0.47384  0.45464  Biso   1.000  H 
  H41      1.0000 0.96554  0.50453  0.35502  Biso   1.000  H 
  H42      1.0000 0.97806  0.57141  0.44389  Biso   1.000  H 
  S4       1.0000 0.72250  0.71610  0.71160  Biso   1.000  S 
  C31      1.0000 0.63850  0.71800  0.71840  Biso   1.000  C 
  H43      1.0000 0.61602  0.69233  0.66074  Biso   1.000  H 
  H44      1.0000 0.62546  0.68051  0.77203  Biso   1.000  H 
  H45      1.0000 0.62285  0.78232  0.72657  Biso   1.000  H 
  O28      1.0000 0.73390  0.76980  0.63560  Biso   1.000  O 
  C32      1.0000 0.74490  0.78070  0.79900  Biso   1.000  C 
  H46      1.0000 0.73817  0.74667  0.85725  Biso   1.000  H 
  H47      1.0000 0.79448  0.79810  0.79617  Biso   1.000  H 
  H48      1.0000 0.71581  0.83700  0.79726  Biso   1.000  H 
  O29      1.0000 0.92110  0.75680  0.52430  Biso   1.000  O 
  C33      1.0000 0.96240  0.81000  0.50710  Biso   1.000  C 
  C34      1.0000 0.97560  0.81340  0.41460  Biso   1.000  C 
  H49      1.0000 0.99310  0.75252  0.39554  Biso   1.000  H 
  H50      1.0000 0.93171  0.82764  0.37849  Biso   1.000  H 
  Cl13     1.0000 0.03270  0.89090  0.39280  Biso   1.000  Cl
  O30      1.0000 0.99240  0.85250  0.56130  Biso   1.000  O 
  C35      1.0000 0.84470  0.90420  0.62830  Biso   1.000  C 
  C36      1.0000 0.82790  0.98880  0.66750  Biso   1.000  C 
  H51      1.0000 0.79791  0.97734  0.71987  Biso   1.000  H 
  Cl14     1.0000 0.78710  0.05730  0.59430  Biso   1.000  Cl
  H52      1.0000 0.87146  0.01921  0.69080  Biso   1.000  H 
  O31      1.0000 0.87890  0.86150  0.67650  Biso   1.000  O 
  O32      1.0000 0.82280  0.88430  0.55560  Biso   1.000  O 
  O33      1.0000 0.91210  0.74580  0.82280  Biso   1.000  O 
  S5       1.0000 0.93200  0.69620  0.90190  Biso   1.000  S 
  C37      1.0000 0.86020  0.66280  0.94200  Biso   1.000  C 
  H53      1.0000 0.83167  0.71720  0.95635  Biso   1.000  H 
  H54      1.0000 0.83451  0.62410  0.89520  Biso   1.000  H 
  H55      1.0000 0.87004  0.62646  0.99923  Biso   1.000  H 
  C38      1.0000 0.95580  0.77430  0.97940  Biso   1.000  C 
  H56      1.0000 0.99487  0.81082  0.95674  Biso   1.000  H 
  H57      1.0000 0.91605  0.81561  0.98988  Biso   1.000  H 
  H58      1.0000 0.97084  0.74360  0.03835  Biso   1.000  H 
  O34      1.0000 0.02550  0.86270  0.76020  Biso   1.000  O 
  C39      1.0000 0.02910  0.91150  0.82090  Biso   1.000  C 
  C40      1.0000 0.97930  0.98080  0.81600  Biso   1.000  C 
  H59      1.0000 0.93329  0.95307  0.82588  Biso   1.000  H 
  Cl15     1.0000 0.99340  0.05780  0.88940  Biso   1.000  Cl
  H60      1.0000 0.97873  0.00891  0.75350  Biso   1.000  H 
  O35      1.0000 0.06910  0.90310  0.88060  Biso   1.000  O 
  O36      1.0000 0.11800  0.76790  0.66600  Biso   1.000  O 
  C41      1.0000 0.09910  0.72740  0.60280  Biso   1.000  C 
  C42      1.0000 0.14170  0.72920  0.53270  Biso   1.000  C 
  H61      1.0000 0.14494  0.79375  0.51120  Biso   1.000  H 
  H62      1.0000 0.18813  0.70797  0.55672  Biso   1.000  H 
  Cl16     1.0000 0.11850  0.66650  0.44470  Biso   1.000  Cl
  O37      1.0000 0.04830  0.68900  0.59650  Biso   1.000  O 
  C43      1.0000 0.15010  0.68210  0.97670  Biso   1.000  C 
  O38      1.0000 0.20440  0.69390  0.95210  Biso   1.000  O 
  O39      1.0000 0.10450  0.72780  0.95420  Biso   1.000  O 
  C44      1.0000 0.14270  0.60470  0.02850  Biso   1.000  C 
  H63      1.0000 0.17368  0.60966  0.08530  Biso   1.000  H 
  H64      1.0000 0.15656  0.55077  0.99180  Biso   1.000  H 
  Cl17     1.0000 0.06390  0.58930  0.05860  Biso   1.000  Cl
  O40      1.0000 0.17290  0.92180  0.74320  Biso   1.000  O 
  S6       1.0000 0.18300  0.93520  0.65000  Biso   1.000  S 
  C45      1.0000 0.11200  0.98520  0.61140  Biso   1.000  C 
  H65      1.0000 0.11454  0.99766  0.54427  Biso   1.000  H 
  H66      1.0000 0.07182  0.94451  0.62147  Biso   1.000  H 
  H67      1.0000 0.10623  0.04401  0.64486  Biso   1.000  H 
  C46      1.0000 0.23620  0.02140  0.64580  Biso   1.000  C 
  H68      1.0000 0.28036  0.00600  0.68073  Biso   1.000  H 
  H69      1.0000 0.21515  0.07634  0.67372  Biso   1.000  H 
  H70      1.0000 0.24560  0.03455  0.58039  Biso   1.000  H 
  O41      1.0000 0.24810  0.75590  0.77560  Biso   1.000  O 
  C47      1.0000 0.30340  0.73770  0.79560  Biso   1.000  C 
  C48      1.0000 0.35140  0.72080  0.72980  Biso   1.000  C 
  H71      1.0000 0.37327  0.66010  0.74285  Biso   1.000  H 
  H72      1.0000 0.38746  0.76948  0.73433  Biso   1.000  H 
  Cl18     1.0000 0.31750  0.71990  0.62770  Biso   1.000  Cl
  O42      1.0000 0.32730  0.72890  0.86710  Biso   1.000  O 
  O43      1.0000 0.23390  0.73020  0.13560  Biso   1.000  O 
  S7       1.0000 0.22250  0.78390  0.21160  Biso   1.000  S 
  C49      1.0000 0.13850  0.78200  0.21840  Biso   1.000  C 
  H73      1.0000 0.11602  0.80768  0.16074  Biso   1.000  H 
  H74      1.0000 0.12546  0.81949  0.27203  Biso   1.000  H 
  H75      1.0000 0.12285  0.71768  0.22657  Biso   1.000  H 
  C50      1.0000 0.24490  0.71930  0.29900  Biso   1.000  C 
  H76      1.0000 0.29448  0.70190  0.29617  Biso   1.000  H 
  H77      1.0000 0.21581  0.66300  0.29725  Biso   1.000  H 
  H78      1.0000 0.23817  0.75333  0.35725  Biso   1.000  H 
  O44      1.0000 0.34920  0.89630  0.97040  Biso   1.000  O 
  S8       1.0000 0.37310  0.92470  0.88850  Biso   1.000  S 
  C51      1.0000 0.44570  0.97330  0.91280  Biso   1.000  C 
  H79      1.0000 0.47806  0.92859  0.94389  Biso   1.000  H 
  H80      1.0000 0.46554  0.99547  0.85502  Biso   1.000  H 
  H81      1.0000 0.43878  0.02616  0.95464  Biso   1.000  H 
  C52      1.0000 0.32540  0.01450  0.86370  Biso   1.000  C 
  H82      1.0000 0.33251  0.06102  0.91346  Biso   1.000  H 
  H83      1.0000 0.33881  0.04105  0.80410  Biso   1.000  H 
  H84      1.0000 0.27578  0.99621  0.85841  Biso   1.000  H 
